/*---------------------------------------------------------------------------*\
| =========                 |                                                 |
| \\      /  F ield         | OpenFOAM: The Open Source CFD Toolbox           |
|  \\    /   O peration     | Version:  2306                                  |
|   \\  /    A nd           | Website:  www.openfoam.com                      |
|    \\/     M anipulation  |                                                 |
\*---------------------------------------------------------------------------*/
Build  : c423ebec-20231012 OPENFOAM=2306 version=v2306
Arch   : "LSB;label=32;scalar=64"
Exec   : icoFoam -parallel -case /hkfs/work/workspace/scratch/eq4036-l3d/workspace/5c3db10b34cb11ab57a86affefff9009/case
Date   : Jan 10 2024
Time   : 21:59:53
Host   : hkn0408.localdomain
PID    : 1179722
I/O    : uncollated
Case   : /hkfs/work/workspace/scratch/eq4036-l3d/workspace/5c3db10b34cb11ab57a86affefff9009/case
nProcs : 76
Hosts  :
(
    (hkn0408.localdomain 76)
)
Pstream initialized with:
    floatTransfer      : false
    nProcsSimpleSum    : 0
    nonBlockingExchange: 0 (tuning: 0)
    exchange algorithm : -1
    commsType          : nonBlocking
    polling iterations : 0
trapFpe: Floating point exception trapping enabled (FOAM_SIGFPE).
fileModificationChecking : Monitoring run-time modified files using timeStampMaster (fileModificationSkew 5, maxFileModificationPolls 20)
allowSystemOperations : Allowing user-supplied system call operations

// * * * * * * * * * * * * * * * * * * * * * * * * * * * * * * * * * * * * * //
Create time

--> FOAM Warning : 
    From void* Foam::dlLibraryTable::openLibrary(const Foam::fileName&, bool)
    in file db/dynamicLibrary/dlLibraryTable/dlLibraryTable.C at line 188
    Could not load "libpetscFoam.so"
libpetscFoam.so: cannot open shared object file: No such file or directory
Create mesh for time = 0


PISO: Operating solver in PISO mode

Reading transportProperties

Reading field p

Reading field U

Reading/calculating face flux field phi


Starting time loop

Time = 0.00025

Courant Number mean: 8.24341e-18 max: 2.08167e-14
[INFO] MatrixAssemblyU: 70.584 [ms]
DILUPBiCGStab:  Solving for Ux, Initial residual = 1, Final residual = 0.0154023, No Iterations 5
DILUPBiCGStab:  Solving for Uy:  solution singularity
DILUPBiCGStab:  Solving for Uz:  solution singularity
[INFO] MomentumPredictor: 204.235 [ms]
[INFO] MatrixAssemblyPI: 66.274 [ms]
[INFO] AdjustPhi: 9.386 [ms]
[INFO] ConstrainPressure: 0.007 [ms]
[INFO] MatrixAssemblyPII: 15.47 [ms]
[OGL LOG][lduLduBase.H:119] Initialising OGL
	OGL commit:  e75313f+
	Branch: dev 
	Build type: Debug
	Ginkgo version: 1.8.0 ( develop)
	Ginkgo commit: sparse-communicator
	MPI is GPU aware: 1
	Forces host buffer based communication: 0
	CPU ranks per GPU: 1
	Matrix format: Ell
	End OGL_INFO
[OGL LOG][Proc: 0]: global_index_init: 44.132 [ms]
[OGL LOG][Proc: 0]p_local_cols: call_init: 2.664 [ms]
[OGL LOG][Proc: 0]p_local_rows: call_init: 0.491 [ms]
[OGL LOG][Proc: 0]p_local_ldu_map: call_init: 0.389 [ms]
[OGL LOG][Proc: 0]p_local_coeffs: call_init: 11.021 [ms]
[OGL LOG][Proc: 0]p_non_local_cols: call_init: 0.02 [ms]
[OGL LOG][Proc: 0]p_non_local_rows: call_init: 0.008 [ms]
[OGL LOG][Proc: 0]p_non_local_ldu_map: call_init: 0.009 [ms]
[OGL LOG][Proc: 0]p_non_local_coeffs: call_init: 0.015 [ms]
[OGL LOG][Proc: 0]p: init_local_sparsity_pattern: 2497.91 [ms]
[OGL LOG][Proc: 0]p: init_non_local_sparsity_pattern: 138.011 [ms]
[OGL LOG][Proc: 0]p: update_local_matrix_data: 49.445 [ms]
[OGL LOG][Proc: 0]p: update_non_local_matrix_data: 0.734 [ms]
[OGL LOG][Proc: 0]device_partition: call_init: 0.225 [ms]
[OGL LOG][Proc: 0]p_matrix: call_init: 60.527 [ms]
[OGL LOG][Proc: 0]p_rhs: call_init: 9.373 [ms]
[OGL LOG][Proc: 0]p_solution: call_init: 4.225 [ms]
[OGL LOG][Preconditioner.H:346] Generate preconditioner Multigrid MaxLevels 9 MinCoarseRows 10 ZeroGuess 1 Cycle v
[OGL LOG][Proc: 0]p: init_precond: 1532.24 [ms]
[OGL LOG][StoppingCriterion.H:239] Creating stopping criterion with minIter 0 frequency 1
[OGL LOG][Proc: 0]p: generate_solver: 0.029 [ms]
[OGL LOG][Proc: 0]p: solve: 60527.2 [ms]
[OGL LOG][Proc: 0]p: copy_x_back: 0.754 [ms]
[OGL LOG][lduLduBase.H:330] 
Statistics:
	Time per iteration: 122524 [mu s]
	Time per residual norm calculation: 14101.000000 [mu s]
	Time per iteration and DOF: 15.315500 [ns]
	Retrieve results bandwidth 1.161000 [GByte/s]
[OGL LOG][Proc: 0]p: solve_multi_gpu: 62228.4 [ms]
MultigridcudaGKOCG:  Solving for p, Initial residual = 1, Final residual = 9.90568e-05, No Iterations 494
[INFO] SolveP: 85914.4 [ms]
time step continuity errors : sum local = 7.70836e-09, global = -6.05483e-22, cumulative = -6.05483e-22
[INFO] ContinuityError: 10.083 [ms]
[INFO] CorrectBoundary: 1.073 [ms]
[INFO] PISOStep: 86044.6 [ms]
[INFO] MatrixAssemblyPI: 64.962 [ms]
[INFO] AdjustPhi: 3.157 [ms]
[INFO] ConstrainPressure: 0.004 [ms]
[INFO] MatrixAssemblyPII: 17.046 [ms]
[OGL LOG][Proc: 0]: global_index_init: 4.652 [ms]
[OGL LOG][Proc: 0]p_local_coeffs: call_update: 0.001 [ms]
[OGL LOG][Proc: 0]p_non_local_coeffs: call_update: 0 [ms]
[OGL LOG][Proc: 0]p: update_local_matrix_data: 29.553 [ms]
[OGL LOG][Proc: 0]p: update_non_local_matrix_data: 0.608 [ms]
[OGL LOG][Proc: 0]p: regenerate_distributed_matrix: 49.871 [ms]
[OGL LOG][Proc: 0]p_matrix: call_update: 62.211 [ms]
[OGL LOG][Proc: 0]p_rhs: call_update: 1.461 [ms]
[OGL LOG][Preconditioner.H:346] Generate preconditioner Multigrid MaxLevels 9 MinCoarseRows 10 ZeroGuess 1 Cycle v
[OGL LOG][Proc: 0]p: init_precond: 1539.17 [ms]
[OGL LOG][StoppingCriterion.H:239] Creating stopping criterion with minIter 296 frequency 4
[OGL LOG][Proc: 0]p: generate_solver: 0.016 [ms]
[OGL LOG][Proc: 0]p: solve: 19733.2 [ms]
[OGL LOG][Proc: 0]p: copy_x_back: 0.676 [ms]
[OGL LOG][lduLduBase.H:330] 
Statistics:
	Time per iteration: 40026 [mu s]
	Time per residual norm calculation: 14091.000000 [mu s]
	Time per iteration and DOF: 5.003250 [ns]
	Retrieve results bandwidth 1.295000 [GByte/s]
[OGL LOG][Proc: 0]p: solve_multi_gpu: 21431.2 [ms]
MultigridcudaGKOCG:  Solving for p, Initial residual = 0.759031, Final residual = 8.31972e-05, No Iterations 493
[INFO] SolveP: 21469.3 [ms]
time step continuity errors : sum local = 8.19355e-09, global = -2.74834e-21, cumulative = -3.35382e-21
[INFO] ContinuityError: 6.742 [ms]
[INFO] CorrectBoundary: 0.596 [ms]
[INFO] PISOStep: 21590.6 [ms]
[INFO] TimeStep: 107919 [ms]
ExecutionTime = 90.81 s  ClockTime = 109 s

Time = 0.0005

Courant Number mean: 0.0156125 max: 0.411822
[INFO] MatrixAssemblyU: 56.834 [ms]
DILUPBiCGStab:  Solving for Ux, Initial residual = 0.129494, Final residual = 0.00856224, No Iterations 5
DILUPBiCGStab:  Solving for Uy, Initial residual = 0.429486, Final residual = 0.0211757, No Iterations 5
DILUPBiCGStab:  Solving for Uz, Initial residual = 0.988374, Final residual = 0.0560711, No Iterations 5
[INFO] MomentumPredictor: 373.111 [ms]
[INFO] MatrixAssemblyPI: 65.485 [ms]
[INFO] AdjustPhi: 2.957 [ms]
[INFO] ConstrainPressure: 0.003 [ms]
[INFO] MatrixAssemblyPII: 14.926 [ms]
[OGL LOG][Proc: 0]: global_index_init: 0.066 [ms]
[OGL LOG][Proc: 0]p_local_coeffs: call_update: 0 [ms]
[OGL LOG][Proc: 0]p_non_local_coeffs: call_update: 0 [ms]
[OGL LOG][Proc: 0]p: update_local_matrix_data: 29.381 [ms]
[OGL LOG][Proc: 0]p: update_non_local_matrix_data: 0.611 [ms]
[OGL LOG][Proc: 0]p: regenerate_distributed_matrix: 43.016 [ms]
[OGL LOG][Proc: 0]p_matrix: call_update: 55.546 [ms]
[OGL LOG][Proc: 0]p_rhs: call_update: 4.82 [ms]
[OGL LOG][Preconditioner.H:346] Generate preconditioner Multigrid MaxLevels 9 MinCoarseRows 10 ZeroGuess 1 Cycle v
[OGL LOG][Proc: 0]p: init_precond: 1565.17 [ms]
[OGL LOG][StoppingCriterion.H:239] Creating stopping criterion with minIter 295 frequency 9
[OGL LOG][Proc: 0]p: generate_solver: 0.011 [ms]
[OGL LOG][Proc: 0]p: solve: 18403.1 [ms]
[OGL LOG][Proc: 0]p: copy_x_back: 0.593 [ms]
[OGL LOG][lduLduBase.H:330] 
Statistics:
	Time per iteration: 39239 [mu s]
	Time per residual norm calculation: 9709.000000 [mu s]
	Time per iteration and DOF: 4.904875 [ns]
	Retrieve results bandwidth 1.477000 [GByte/s]
[OGL LOG][Proc: 0]p: solve_multi_gpu: 20127.9 [ms]
MultigridcudaGKOCG:  Solving for p, Initial residual = 0.826158, Final residual = 8.48144e-05, No Iterations 469
[INFO] SolveP: 20167.3 [ms]
time step continuity errors : sum local = 1.26819e-08, global = -7.1847e-21, cumulative = -1.05385e-20
[INFO] ContinuityError: 11.872 [ms]
[INFO] CorrectBoundary: 1.812 [ms]
[INFO] PISOStep: 20288.4 [ms]
[INFO] MatrixAssemblyPI: 63.75 [ms]
[INFO] AdjustPhi: 4.55 [ms]
[INFO] ConstrainPressure: 0.004 [ms]
[INFO] MatrixAssemblyPII: 15.153 [ms]
[OGL LOG][Proc: 0]: global_index_init: 0.054 [ms]
[OGL LOG][Proc: 0]p_local_coeffs: call_update: 0 [ms]
[OGL LOG][Proc: 0]p_non_local_coeffs: call_update: 0 [ms]
[OGL LOG][Proc: 0]p: update_local_matrix_data: 28.267 [ms]
[OGL LOG][Proc: 0]p: update_non_local_matrix_data: 0.548 [ms]
[OGL LOG][Proc: 0]p: regenerate_distributed_matrix: 46.655 [ms]
[OGL LOG][Proc: 0]p_matrix: call_update: 58.013 [ms]
[OGL LOG][Proc: 0]p_rhs: call_update: 0.612 [ms]
[OGL LOG][Preconditioner.H:346] Generate preconditioner Multigrid MaxLevels 9 MinCoarseRows 10 ZeroGuess 1 Cycle v
[OGL LOG][Proc: 0]p: init_precond: 1587.86 [ms]
[OGL LOG][StoppingCriterion.H:239] Creating stopping criterion with minIter 281 frequency 6
[OGL LOG][Proc: 0]p: generate_solver: 0.011 [ms]
[OGL LOG][Proc: 0]p: solve: 18267.3 [ms]
[OGL LOG][Proc: 0]p: copy_x_back: 0.971 [ms]
[OGL LOG][lduLduBase.H:330] 
Statistics:
	Time per iteration: 39454 [mu s]
	Time per residual norm calculation: 9677.000000 [mu s]
	Time per iteration and DOF: 4.931750 [ns]
	Retrieve results bandwidth 0.902000 [GByte/s]
[OGL LOG][Proc: 0]p: solve_multi_gpu: 19996.6 [ms]
MultigridcudaGKOCG:  Solving for p, Initial residual = 0.743846, Final residual = 8.687e-05, No Iterations 463
[INFO] SolveP: 20032.1 [ms]
time step continuity errors : sum local = 1.33062e-08, global = -1.08458e-21, cumulative = -1.16231e-20
[INFO] ContinuityError: 9.143 [ms]
[INFO] CorrectBoundary: 0.549 [ms]
[INFO] PISOStep: 20153.2 [ms]
[INFO] TimeStep: 40875.6 [ms]
ExecutionTime = 131.47 s  ClockTime = 150 s

Time = 0.00075

Courant Number mean: 0.023937 max: 0.470934
[INFO] MatrixAssemblyU: 59.317 [ms]
DILUPBiCGStab:  Solving for Ux, Initial residual = 0.054896, Final residual = 0.00298662, No Iterations 5
DILUPBiCGStab:  Solving for Uy, Initial residual = 0.182859, Final residual = 0.0112154, No Iterations 5
DILUPBiCGStab:  Solving for Uz, Initial residual = 0.807253, Final residual = 0.040896, No Iterations 5
[INFO] MomentumPredictor: 372.139 [ms]
[INFO] MatrixAssemblyPI: 66.006 [ms]
[INFO] AdjustPhi: 3.763 [ms]
[INFO] ConstrainPressure: 0.003 [ms]
[INFO] MatrixAssemblyPII: 15.284 [ms]
[OGL LOG][Proc: 0]: global_index_init: 0.071 [ms]
[OGL LOG][Proc: 0]p_local_coeffs: call_update: 0 [ms]
[OGL LOG][Proc: 0]p_non_local_coeffs: call_update: 0 [ms]
[OGL LOG][Proc: 0]p: update_local_matrix_data: 26.114 [ms]
[OGL LOG][Proc: 0]p: update_non_local_matrix_data: 0.609 [ms]
[OGL LOG][Proc: 0]p: regenerate_distributed_matrix: 44.976 [ms]
[OGL LOG][Proc: 0]p_matrix: call_update: 58.764 [ms]
[OGL LOG][Proc: 0]p_rhs: call_update: 3.3 [ms]
[OGL LOG][Preconditioner.H:346] Generate preconditioner Multigrid MaxLevels 9 MinCoarseRows 10 ZeroGuess 1 Cycle v
[OGL LOG][Proc: 0]p: init_precond: 1594.32 [ms]
[OGL LOG][StoppingCriterion.H:239] Creating stopping criterion with minIter 277 frequency 6
[OGL LOG][Proc: 0]p: generate_solver: 0.011 [ms]
[OGL LOG][Proc: 0]p: solve: 18031.6 [ms]
[OGL LOG][Proc: 0]p: copy_x_back: 0.501 [ms]
[OGL LOG][lduLduBase.H:330] 
Statistics:
	Time per iteration: 39456 [mu s]
	Time per residual norm calculation: 14100.000000 [mu s]
	Time per iteration and DOF: 4.932000 [ns]
	Retrieve results bandwidth 1.748000 [GByte/s]
[OGL LOG][Proc: 0]p: solve_multi_gpu: 19797.2 [ms]
MultigridcudaGKOCG:  Solving for p, Initial residual = 0.84562, Final residual = 8.16674e-05, No Iterations 457
[INFO] SolveP: 19828.8 [ms]
time step continuity errors : sum local = 1.10389e-08, global = -3.06514e-21, cumulative = -1.46882e-20
[INFO] ContinuityError: 8.072 [ms]
[INFO] CorrectBoundary: 1.413 [ms]
[INFO] PISOStep: 19948 [ms]
[INFO] MatrixAssemblyPI: 64.109 [ms]
[INFO] AdjustPhi: 4.255 [ms]
[INFO] ConstrainPressure: 0.003 [ms]
[INFO] MatrixAssemblyPII: 15.457 [ms]
[OGL LOG][Proc: 0]: global_index_init: 0.094 [ms]
[OGL LOG][Proc: 0]p_local_coeffs: call_update: 0 [ms]
[OGL LOG][Proc: 0]p_non_local_coeffs: call_update: 0 [ms]
[OGL LOG][Proc: 0]p: update_local_matrix_data: 30.864 [ms]
[OGL LOG][Proc: 0]p: update_non_local_matrix_data: 0.642 [ms]
[OGL LOG][Proc: 0]p: regenerate_distributed_matrix: 51.375 [ms]
[OGL LOG][Proc: 0]p_matrix: call_update: 63.464 [ms]
[OGL LOG][Proc: 0]p_rhs: call_update: 0.564 [ms]
[OGL LOG][Preconditioner.H:346] Generate preconditioner Multigrid MaxLevels 9 MinCoarseRows 10 ZeroGuess 1 Cycle v
[OGL LOG][Proc: 0]p: init_precond: 1612.61 [ms]
[OGL LOG][StoppingCriterion.H:239] Creating stopping criterion with minIter 274 frequency 9
[OGL LOG][Proc: 0]p: generate_solver: 0.011 [ms]
[OGL LOG][Proc: 0]p: solve: 18043.1 [ms]
[OGL LOG][Proc: 0]p: copy_x_back: 0.99 [ms]
[OGL LOG][lduLduBase.H:330] 
Statistics:
	Time per iteration: 39224 [mu s]
	Time per residual norm calculation: 13203.000000 [mu s]
	Time per iteration and DOF: 4.903000 [ns]
	Retrieve results bandwidth 0.884000 [GByte/s]
[OGL LOG][Proc: 0]p: solve_multi_gpu: 19821.2 [ms]
MultigridcudaGKOCG:  Solving for p, Initial residual = 0.801065, Final residual = 6.00142e-05, No Iterations 460
[INFO] SolveP: 19856.5 [ms]
time step continuity errors : sum local = 7.84989e-09, global = -5.84696e-21, cumulative = -2.05352e-20
[INFO] ContinuityError: 6.892 [ms]
[INFO] CorrectBoundary: 0.55 [ms]
[INFO] PISOStep: 19977.7 [ms]
[INFO] TimeStep: 40366.3 [ms]
ExecutionTime = 171.42 s  ClockTime = 190 s

Time = 0.001

Courant Number mean: 0.0287945 max: 0.467132
[INFO] MatrixAssemblyU: 59.693 [ms]
DILUPBiCGStab:  Solving for Ux, Initial residual = 0.0349591, Final residual = 0.00199725, No Iterations 5
DILUPBiCGStab:  Solving for Uy, Initial residual = 0.128918, Final residual = 0.00691301, No Iterations 5
DILUPBiCGStab:  Solving for Uz, Initial residual = 0.593514, Final residual = 0.0256154, No Iterations 5
[INFO] MomentumPredictor: 365.416 [ms]
[INFO] MatrixAssemblyPI: 65.267 [ms]
[INFO] AdjustPhi: 2.967 [ms]
[INFO] ConstrainPressure: 0.002 [ms]
[INFO] MatrixAssemblyPII: 15.914 [ms]
[OGL LOG][Proc: 0]: global_index_init: 0.079 [ms]
[OGL LOG][Proc: 0]p_local_coeffs: call_update: 0 [ms]
[OGL LOG][Proc: 0]p_non_local_coeffs: call_update: 0 [ms]
[OGL LOG][Proc: 0]p: update_local_matrix_data: 30.047 [ms]
[OGL LOG][Proc: 0]p: update_non_local_matrix_data: 0.681 [ms]
[OGL LOG][Proc: 0]p: regenerate_distributed_matrix: 45.439 [ms]
[OGL LOG][Proc: 0]p_matrix: call_update: 59.568 [ms]
[OGL LOG][Proc: 0]p_rhs: call_update: 2.476 [ms]
[OGL LOG][Preconditioner.H:346] Generate preconditioner Multigrid MaxLevels 9 MinCoarseRows 10 ZeroGuess 1 Cycle v
[OGL LOG][Proc: 0]p: init_precond: 1620.55 [ms]
[OGL LOG][StoppingCriterion.H:239] Creating stopping criterion with minIter 276 frequency 9
[OGL LOG][Proc: 0]p: generate_solver: 0.011 [ms]
[OGL LOG][Proc: 0]p: solve: 10891.6 [ms]
[OGL LOG][Proc: 0]p: copy_x_back: 0.545 [ms]
[OGL LOG][lduLduBase.H:330] 
Statistics:
	Time per iteration: 38898 [mu s]
	Time per residual norm calculation: 13371.000000 [mu s]
	Time per iteration and DOF: 4.862250 [ns]
	Retrieve results bandwidth 1.607000 [GByte/s]
[OGL LOG][Proc: 0]p: solve_multi_gpu: 12672 [ms]
MultigridcudaGKOCG:  Solving for p, Initial residual = 0.768683, Final residual = 2.12167e-05, No Iterations 280
[INFO] SolveP: 12707.4 [ms]
time step continuity errors : sum local = 2.92569e-09, global = -7.24688e-21, cumulative = -2.77821e-20
[INFO] ContinuityError: 6.79 [ms]
[INFO] CorrectBoundary: 2.029 [ms]
[INFO] PISOStep: 12825.1 [ms]
[INFO] MatrixAssemblyPI: 62.378 [ms]
[INFO] AdjustPhi: 3.929 [ms]
[INFO] ConstrainPressure: 0.003 [ms]
[INFO] MatrixAssemblyPII: 15.419 [ms]
[OGL LOG][Proc: 0]: global_index_init: 0.055 [ms]
[OGL LOG][Proc: 0]p_local_coeffs: call_update: 0 [ms]
[OGL LOG][Proc: 0]p_non_local_coeffs: call_update: 0 [ms]
[OGL LOG][Proc: 0]p: update_local_matrix_data: 29.872 [ms]
[OGL LOG][Proc: 0]p: update_non_local_matrix_data: 0.549 [ms]
[OGL LOG][Proc: 0]p: regenerate_distributed_matrix: 46.901 [ms]
[OGL LOG][Proc: 0]p_matrix: call_update: 57.74 [ms]
[OGL LOG][Proc: 0]p_rhs: call_update: 0.305 [ms]
[OGL LOG][Preconditioner.H:346] Generate preconditioner Multigrid MaxLevels 9 MinCoarseRows 10 ZeroGuess 1 Cycle v
[OGL LOG][Proc: 0]p: init_precond: 1597.13 [ms]
[OGL LOG][StoppingCriterion.H:239] Creating stopping criterion with minIter 168 frequency 7
[OGL LOG][Proc: 0]p: generate_solver: 0.011 [ms]
[OGL LOG][Proc: 0]p: solve: 8608.39 [ms]
[OGL LOG][Proc: 0]p: copy_x_back: 0.571 [ms]
[OGL LOG][lduLduBase.H:330] 
Statistics:
	Time per iteration: 39488 [mu s]
	Time per residual norm calculation: 11185.000000 [mu s]
	Time per iteration and DOF: 4.936000 [ns]
	Retrieve results bandwidth 1.534000 [GByte/s]
[OGL LOG][Proc: 0]p: solve_multi_gpu: 10362.3 [ms]
MultigridcudaGKOCG:  Solving for p, Initial residual = 0.699781, Final residual = 9.87838e-05, No Iterations 218
[INFO] SolveP: 10396.6 [ms]
time step continuity errors : sum local = 1.23666e-08, global = -6.59904e-21, cumulative = -3.43811e-20
[INFO] ContinuityError: 9.129 [ms]
[INFO] CorrectBoundary: 1.989 [ms]
[INFO] PISOStep: 10513.7 [ms]
[INFO] TimeStep: 23769.9 [ms]
ExecutionTime = 195.09 s  ClockTime = 214 s

Time = 0.00125

Courant Number mean: 0.0329187 max: 0.47211
[INFO] MatrixAssemblyU: 55.439 [ms]
DILUPBiCGStab:  Solving for Ux, Initial residual = 0.0273763, Final residual = 0.00144386, No Iterations 5
DILUPBiCGStab:  Solving for Uy, Initial residual = 0.0822817, Final residual = 0.00533755, No Iterations 5
DILUPBiCGStab:  Solving for Uz, Initial residual = 0.434972, Final residual = 0.0181804, No Iterations 5
[INFO] MomentumPredictor: 371.748 [ms]
[INFO] MatrixAssemblyPI: 64.624 [ms]
[INFO] AdjustPhi: 3.86 [ms]
[INFO] ConstrainPressure: 0.003 [ms]
[INFO] MatrixAssemblyPII: 15.016 [ms]
[OGL LOG][Proc: 0]: global_index_init: 0.086 [ms]
[OGL LOG][Proc: 0]p_local_coeffs: call_update: 0 [ms]
[OGL LOG][Proc: 0]p_non_local_coeffs: call_update: 0 [ms]
[OGL LOG][Proc: 0]p: update_local_matrix_data: 30.378 [ms]
[OGL LOG][Proc: 0]p: update_non_local_matrix_data: 0.594 [ms]
[OGL LOG][Proc: 0]p: regenerate_distributed_matrix: 47.809 [ms]
[OGL LOG][Proc: 0]p_matrix: call_update: 60.082 [ms]
[OGL LOG][Proc: 0]p_rhs: call_update: 1.255 [ms]
[OGL LOG][Preconditioner.H:346] Generate preconditioner Multigrid MaxLevels 9 MinCoarseRows 10 ZeroGuess 1 Cycle v
[OGL LOG][Proc: 0]p: init_precond: 1591.58 [ms]
[OGL LOG][StoppingCriterion.H:239] Creating stopping criterion with minIter 130 frequency 5
[OGL LOG][Proc: 0]p: generate_solver: 0.01 [ms]
[OGL LOG][Proc: 0]p: solve: 7645.16 [ms]
[OGL LOG][Proc: 0]p: copy_x_back: 1.099 [ms]
[OGL LOG][lduLduBase.H:330] 
Statistics:
	Time per iteration: 40027 [mu s]
	Time per residual norm calculation: 12753.000000 [mu s]
	Time per iteration and DOF: 5.003375 [ns]
	Retrieve results bandwidth 0.797000 [GByte/s]
[OGL LOG][Proc: 0]p: solve_multi_gpu: 9404.6 [ms]
MultigridcudaGKOCG:  Solving for p, Initial residual = 0.773319, Final residual = 9.07126e-05, No Iterations 191
[INFO] SolveP: 9446.91 [ms]
time step continuity errors : sum local = 9.20862e-09, global = -7.3928e-21, cumulative = -4.17739e-20
[INFO] ContinuityError: 6.242 [ms]
[INFO] CorrectBoundary: 0.825 [ms]
[INFO] PISOStep: 9568.31 [ms]
[INFO] MatrixAssemblyPI: 61.706 [ms]
[INFO] AdjustPhi: 3.112 [ms]
[INFO] ConstrainPressure: 0.003 [ms]
[INFO] MatrixAssemblyPII: 16.433 [ms]
[OGL LOG][Proc: 0]: global_index_init: 0.087 [ms]
[OGL LOG][Proc: 0]p_local_coeffs: call_update: 0 [ms]
[OGL LOG][Proc: 0]p_non_local_coeffs: call_update: 0 [ms]
[OGL LOG][Proc: 0]p: update_local_matrix_data: 29.911 [ms]
[OGL LOG][Proc: 0]p: update_non_local_matrix_data: 0.644 [ms]
[OGL LOG][Proc: 0]p: regenerate_distributed_matrix: 45.893 [ms]
[OGL LOG][Proc: 0]p_matrix: call_update: 58.674 [ms]
[OGL LOG][Proc: 0]p_rhs: call_update: 2.817 [ms]
[OGL LOG][Preconditioner.H:346] Generate preconditioner Multigrid MaxLevels 9 MinCoarseRows 10 ZeroGuess 1 Cycle v
[OGL LOG][Proc: 0]p: init_precond: 1570.52 [ms]
[OGL LOG][StoppingCriterion.H:239] Creating stopping criterion with minIter 114 frequency 5
[OGL LOG][Proc: 0]p: generate_solver: 0.011 [ms]
[OGL LOG][Proc: 0]p: solve: 7707.04 [ms]
[OGL LOG][Proc: 0]p: copy_x_back: 0.608 [ms]
[OGL LOG][lduLduBase.H:330] 
Statistics:
	Time per iteration: 40351 [mu s]
	Time per residual norm calculation: 13334.000000 [mu s]
	Time per iteration and DOF: 5.043875 [ns]
	Retrieve results bandwidth 1.440000 [GByte/s]
[OGL LOG][Proc: 0]p: solve_multi_gpu: 9446.86 [ms]
MultigridcudaGKOCG:  Solving for p, Initial residual = 0.722898, Final residual = 8.73395e-05, No Iterations 191
[INFO] SolveP: 9480.46 [ms]
time step continuity errors : sum local = 8.69779e-09, global = -5.63351e-21, cumulative = -4.74074e-20
[INFO] ContinuityError: 6.11 [ms]
[INFO] CorrectBoundary: 1.855 [ms]
[INFO] PISOStep: 9594.56 [ms]
[INFO] TimeStep: 19599.3 [ms]
ExecutionTime = 214.61 s  ClockTime = 234 s

Time = 0.0015

Courant Number mean: 0.0362124 max: 0.475102
[INFO] MatrixAssemblyU: 55.451 [ms]
DILUPBiCGStab:  Solving for Ux, Initial residual = 0.0207803, Final residual = 0.00103612, No Iterations 5
DILUPBiCGStab:  Solving for Uy, Initial residual = 0.0664931, Final residual = 0.00355762, No Iterations 5
DILUPBiCGStab:  Solving for Uz, Initial residual = 0.317609, Final residual = 0.0135223, No Iterations 5
[INFO] MomentumPredictor: 369.453 [ms]
[INFO] MatrixAssemblyPI: 64.126 [ms]
[INFO] AdjustPhi: 3.651 [ms]
[INFO] ConstrainPressure: 0.003 [ms]
[INFO] MatrixAssemblyPII: 15.24 [ms]
[OGL LOG][Proc: 0]: global_index_init: 0.164 [ms]
[OGL LOG][Proc: 0]p_local_coeffs: call_update: 0 [ms]
[OGL LOG][Proc: 0]p_non_local_coeffs: call_update: 0 [ms]
[OGL LOG][Proc: 0]p: update_local_matrix_data: 30.616 [ms]
[OGL LOG][Proc: 0]p: update_non_local_matrix_data: 0.554 [ms]
[OGL LOG][Proc: 0]p: regenerate_distributed_matrix: 50.293 [ms]
[OGL LOG][Proc: 0]p_matrix: call_update: 61.716 [ms]
[OGL LOG][Proc: 0]p_rhs: call_update: 0.867 [ms]
[OGL LOG][Preconditioner.H:346] Generate preconditioner Multigrid MaxLevels 9 MinCoarseRows 10 ZeroGuess 1 Cycle v
[OGL LOG][Proc: 0]p: init_precond: 1570.34 [ms]
[OGL LOG][StoppingCriterion.H:239] Creating stopping criterion with minIter 114 frequency 5
[OGL LOG][Proc: 0]p: generate_solver: 0.01 [ms]
[OGL LOG][Proc: 0]p: solve: 7899.71 [ms]
[OGL LOG][Proc: 0]p: copy_x_back: 0.574 [ms]
[OGL LOG][lduLduBase.H:330] 
Statistics:
	Time per iteration: 40304 [mu s]
	Time per residual norm calculation: 12140.000000 [mu s]
	Time per iteration and DOF: 5.038000 [ns]
	Retrieve results bandwidth 1.526000 [GByte/s]
[OGL LOG][Proc: 0]p: solve_multi_gpu: 9629.17 [ms]
MultigridcudaGKOCG:  Solving for p, Initial residual = 0.684448, Final residual = 7.92699e-05, No Iterations 196
[INFO] SolveP: 9668.52 [ms]
time step continuity errors : sum local = 8.03482e-09, global = -8.03132e-21, cumulative = -5.54388e-20
[INFO] ContinuityError: 9.429 [ms]
[INFO] CorrectBoundary: 2.072 [ms]
[INFO] PISOStep: 9787.41 [ms]
[INFO] MatrixAssemblyPI: 60.905 [ms]
[INFO] AdjustPhi: 4.876 [ms]
[INFO] ConstrainPressure: 0.004 [ms]
[INFO] MatrixAssemblyPII: 15.353 [ms]
[OGL LOG][Proc: 0]: global_index_init: 0.07 [ms]
[OGL LOG][Proc: 0]p_local_coeffs: call_update: 0 [ms]
[OGL LOG][Proc: 0]p_non_local_coeffs: call_update: 0 [ms]
[OGL LOG][Proc: 0]p: update_local_matrix_data: 30.198 [ms]
[OGL LOG][Proc: 0]p: update_non_local_matrix_data: 0.629 [ms]
[OGL LOG][Proc: 0]p: regenerate_distributed_matrix: 42.685 [ms]
[OGL LOG][Proc: 0]p_matrix: call_update: 55.263 [ms]
[OGL LOG][Proc: 0]p_rhs: call_update: 4.953 [ms]
[OGL LOG][Preconditioner.H:346] Generate preconditioner Multigrid MaxLevels 9 MinCoarseRows 10 ZeroGuess 1 Cycle v
[OGL LOG][Proc: 0]p: init_precond: 1584.73 [ms]
[OGL LOG][StoppingCriterion.H:239] Creating stopping criterion with minIter 117 frequency 5
[OGL LOG][Proc: 0]p: generate_solver: 0.012 [ms]
[OGL LOG][Proc: 0]p: solve: 7677.15 [ms]
[OGL LOG][Proc: 0]p: copy_x_back: 0.665 [ms]
[OGL LOG][lduLduBase.H:330] 
Statistics:
	Time per iteration: 40194 [mu s]
	Time per residual norm calculation: 11696.000000 [mu s]
	Time per iteration and DOF: 5.024250 [ns]
	Retrieve results bandwidth 1.317000 [GByte/s]
[OGL LOG][Proc: 0]p: solve_multi_gpu: 9436.86 [ms]
MultigridcudaGKOCG:  Solving for p, Initial residual = 0.62438, Final residual = 9.57272e-05, No Iterations 191
[INFO] SolveP: 9470.34 [ms]
time step continuity errors : sum local = 9.20705e-09, global = -8.2974e-21, cumulative = -6.37362e-20
[INFO] ContinuityError: 14.137 [ms]
[INFO] CorrectBoundary: 0.845 [ms]
[INFO] PISOStep: 9591.85 [ms]
[INFO] TimeStep: 19815.2 [ms]
ExecutionTime = 234.31 s  ClockTime = 254 s

Time = 0.00175

Courant Number mean: 0.0391254 max: 0.477269
[INFO] MatrixAssemblyU: 54.864 [ms]
DILUPBiCGStab:  Solving for Ux, Initial residual = 0.0177506, Final residual = 0.000806656, No Iterations 5
DILUPBiCGStab:  Solving for Uy, Initial residual = 0.0500026, Final residual = 0.00275453, No Iterations 5
DILUPBiCGStab:  Solving for Uz, Initial residual = 0.24632, Final residual = 0.0119604, No Iterations 5
[INFO] MomentumPredictor: 376.575 [ms]
[INFO] MatrixAssemblyPI: 64.91 [ms]
[INFO] AdjustPhi: 2.848 [ms]
[INFO] ConstrainPressure: 0.003 [ms]
[INFO] MatrixAssemblyPII: 15.594 [ms]
[OGL LOG][Proc: 0]: global_index_init: 0.122 [ms]
[OGL LOG][Proc: 0]p_local_coeffs: call_update: 0 [ms]
[OGL LOG][Proc: 0]p_non_local_coeffs: call_update: 0 [ms]
[OGL LOG][Proc: 0]p: update_local_matrix_data: 26.529 [ms]
[OGL LOG][Proc: 0]p: update_non_local_matrix_data: 0.599 [ms]
[OGL LOG][Proc: 0]p: regenerate_distributed_matrix: 42.716 [ms]
[OGL LOG][Proc: 0]p_matrix: call_update: 55.184 [ms]
[OGL LOG][Proc: 0]p_rhs: call_update: 6.213 [ms]
[OGL LOG][Preconditioner.H:346] Generate preconditioner Multigrid MaxLevels 9 MinCoarseRows 10 ZeroGuess 1 Cycle v
[OGL LOG][Proc: 0]p: init_precond: 1600.97 [ms]
[OGL LOG][StoppingCriterion.H:239] Creating stopping criterion with minIter 114 frequency 5
[OGL LOG][Proc: 0]p: generate_solver: 0.011 [ms]
[OGL LOG][Proc: 0]p: solve: 7464.79 [ms]
[OGL LOG][Proc: 0]p: copy_x_back: 0.965 [ms]
[OGL LOG][lduLduBase.H:330] 
Statistics:
	Time per iteration: 40133 [mu s]
	Time per residual norm calculation: 11694.000000 [mu s]
	Time per iteration and DOF: 5.016625 [ns]
	Retrieve results bandwidth 0.907000 [GByte/s]
[OGL LOG][Proc: 0]p: solve_multi_gpu: 9235.74 [ms]
MultigridcudaGKOCG:  Solving for p, Initial residual = 0.68126, Final residual = 9.24875e-05, No Iterations 186
[INFO] SolveP: 9267.47 [ms]
time step continuity errors : sum local = 7.97924e-09, global = -1.12421e-20, cumulative = -7.49783e-20
[INFO] ContinuityError: 3.826 [ms]
[INFO] CorrectBoundary: 0.827 [ms]
[INFO] PISOStep: 9386.04 [ms]
[INFO] MatrixAssemblyPI: 63.135 [ms]
[INFO] AdjustPhi: 2.348 [ms]
[INFO] ConstrainPressure: 0.003 [ms]
[INFO] MatrixAssemblyPII: 16.479 [ms]
[OGL LOG][Proc: 0]: global_index_init: 0.11 [ms]
[OGL LOG][Proc: 0]p_local_coeffs: call_update: 0 [ms]
[OGL LOG][Proc: 0]p_non_local_coeffs: call_update: 0 [ms]
[OGL LOG][Proc: 0]p: update_local_matrix_data: 30.024 [ms]
[OGL LOG][Proc: 0]p: update_non_local_matrix_data: 0.655 [ms]
[OGL LOG][Proc: 0]p: regenerate_distributed_matrix: 48.131 [ms]
[OGL LOG][Proc: 0]p_matrix: call_update: 58.79 [ms]
[OGL LOG][Proc: 0]p_rhs: call_update: 0.241 [ms]
[OGL LOG][Preconditioner.H:346] Generate preconditioner Multigrid MaxLevels 9 MinCoarseRows 10 ZeroGuess 1 Cycle v
[OGL LOG][Proc: 0]p: init_precond: 1579.12 [ms]
[OGL LOG][StoppingCriterion.H:239] Creating stopping criterion with minIter 111 frequency 4
[OGL LOG][Proc: 0]p: generate_solver: 0.011 [ms]
[OGL LOG][Proc: 0]p: solve: 7497.63 [ms]
[OGL LOG][Proc: 0]p: copy_x_back: 0.587 [ms]
[OGL LOG][lduLduBase.H:330] 
Statistics:
	Time per iteration: 40527 [mu s]
	Time per residual norm calculation: 11840.000000 [mu s]
	Time per iteration and DOF: 5.065875 [ns]
	Retrieve results bandwidth 1.492000 [GByte/s]
[OGL LOG][Proc: 0]p: solve_multi_gpu: 9241.48 [ms]
MultigridcudaGKOCG:  Solving for p, Initial residual = 0.625887, Final residual = 8.59534e-05, No Iterations 185
[INFO] SolveP: 9275.24 [ms]
time step continuity errors : sum local = 6.8938e-09, global = -8.88652e-21, cumulative = -8.38648e-20
[INFO] ContinuityError: 7.578 [ms]
[INFO] CorrectBoundary: 1 [ms]
[INFO] PISOStep: 9391.24 [ms]
[INFO] TimeStep: 19220.2 [ms]
ExecutionTime = 253.45 s  ClockTime = 273 s

Time = 0.002

Courant Number mean: 0.0416556 max: 0.478873
[INFO] MatrixAssemblyU: 55.293 [ms]
DILUPBiCGStab:  Solving for Ux, Initial residual = 0.0146547, Final residual = 0.000624462, No Iterations 5
DILUPBiCGStab:  Solving for Uy, Initial residual = 0.0425274, Final residual = 0.00205464, No Iterations 5
DILUPBiCGStab:  Solving for Uz, Initial residual = 0.194527, Final residual = 0.0096266, No Iterations 5
[INFO] MomentumPredictor: 370.185 [ms]
[INFO] MatrixAssemblyPI: 64.115 [ms]
[INFO] AdjustPhi: 3.594 [ms]
[INFO] ConstrainPressure: 0.003 [ms]
[INFO] MatrixAssemblyPII: 15.371 [ms]
[OGL LOG][Proc: 0]: global_index_init: 0.052 [ms]
[OGL LOG][Proc: 0]p_local_coeffs: call_update: 0 [ms]
[OGL LOG][Proc: 0]p_non_local_coeffs: call_update: 0 [ms]
[OGL LOG][Proc: 0]p: update_local_matrix_data: 30.139 [ms]
[OGL LOG][Proc: 0]p: update_non_local_matrix_data: 0.649 [ms]
[OGL LOG][Proc: 0]p: regenerate_distributed_matrix: 50.114 [ms]
[OGL LOG][Proc: 0]p_matrix: call_update: 60.655 [ms]
[OGL LOG][Proc: 0]p_rhs: call_update: 0.283 [ms]
[OGL LOG][Preconditioner.H:346] Generate preconditioner Multigrid MaxLevels 9 MinCoarseRows 10 ZeroGuess 1 Cycle v
[OGL LOG][Proc: 0]p: init_precond: 1600.01 [ms]
[OGL LOG][StoppingCriterion.H:239] Creating stopping criterion with minIter 111 frequency 4
[OGL LOG][Proc: 0]p: generate_solver: 0.011 [ms]
[OGL LOG][Proc: 0]p: solve: 17882.9 [ms]
[OGL LOG][Proc: 0]p: copy_x_back: 0.593 [ms]
[OGL LOG][lduLduBase.H:330] 
Statistics:
	Time per iteration: 40921 [mu s]
	Time per residual norm calculation: 12270.000000 [mu s]
	Time per iteration and DOF: 5.115125 [ns]
	Retrieve results bandwidth 1.477000 [GByte/s]
[OGL LOG][Proc: 0]p: solve_multi_gpu: 19649.7 [ms]
MultigridcudaGKOCG:  Solving for p, Initial residual = 0.591797, Final residual = 9.11424e-05, No Iterations 437
[INFO] SolveP: 19692.3 [ms]
time step continuity errors : sum local = 6.82964e-09, global = -1.09981e-20, cumulative = -9.48629e-20
[INFO] ContinuityError: 13.05 [ms]
[INFO] CorrectBoundary: 1.797 [ms]
[INFO] PISOStep: 19811.7 [ms]
[INFO] MatrixAssemblyPI: 61.583 [ms]
[INFO] AdjustPhi: 6.052 [ms]
[INFO] ConstrainPressure: 0.003 [ms]
[INFO] MatrixAssemblyPII: 15.368 [ms]
[OGL LOG][Proc: 0]: global_index_init: 0.049 [ms]
[OGL LOG][Proc: 0]p_local_coeffs: call_update: 0 [ms]
[OGL LOG][Proc: 0]p_non_local_coeffs: call_update: 0 [ms]
[OGL LOG][Proc: 0]p: update_local_matrix_data: 30.772 [ms]
[OGL LOG][Proc: 0]p: update_non_local_matrix_data: 0.573 [ms]
[OGL LOG][Proc: 0]p: regenerate_distributed_matrix: 42.135 [ms]
[OGL LOG][Proc: 0]p_matrix: call_update: 56.076 [ms]
[OGL LOG][Proc: 0]p_rhs: call_update: 2.77 [ms]
[OGL LOG][Preconditioner.H:346] Generate preconditioner Multigrid MaxLevels 9 MinCoarseRows 10 ZeroGuess 1 Cycle v
[OGL LOG][Proc: 0]p: init_precond: 1606.72 [ms]
[OGL LOG][StoppingCriterion.H:239] Creating stopping criterion with minIter 262 frequency 7
[OGL LOG][Proc: 0]p: generate_solver: 0.01 [ms]
[OGL LOG][Proc: 0]p: solve: 17134.9 [ms]
[OGL LOG][Proc: 0]p: copy_x_back: 0.983 [ms]
[OGL LOG][lduLduBase.H:330] 
Statistics:
	Time per iteration: 39390 [mu s]
	Time per residual norm calculation: 13643.000000 [mu s]
	Time per iteration and DOF: 4.923750 [ns]
	Retrieve results bandwidth 0.891000 [GByte/s]
[OGL LOG][Proc: 0]p: solve_multi_gpu: 18904.8 [ms]
MultigridcudaGKOCG:  Solving for p, Initial residual = 0.538724, Final residual = 9.93728e-05, No Iterations 435
[INFO] SolveP: 18939.1 [ms]
time step continuity errors : sum local = 7.43131e-09, global = -9.07309e-21, cumulative = -1.03936e-19
[INFO] ContinuityError: 7.71 [ms]
[INFO] CorrectBoundary: 0.739 [ms]
[INFO] PISOStep: 19059.4 [ms]
[INFO] TimeStep: 39307.1 [ms]
ExecutionTime = 292.57 s  ClockTime = 312 s

Time = 0.00225

Courant Number mean: 0.043948 max: 0.480162
[INFO] MatrixAssemblyU: 57.955 [ms]
DILUPBiCGStab:  Solving for Ux, Initial residual = 0.012884, Final residual = 0.000498852, No Iterations 5
DILUPBiCGStab:  Solving for Uy, Initial residual = 0.0345834, Final residual = 0.00155784, No Iterations 5
DILUPBiCGStab:  Solving for Uz, Initial residual = 0.160381, Final residual = 0.00887454, No Iterations 5
[INFO] MomentumPredictor: 367.699 [ms]
[INFO] MatrixAssemblyPI: 65.185 [ms]
[INFO] AdjustPhi: 4.752 [ms]
[INFO] ConstrainPressure: 0.003 [ms]
[INFO] MatrixAssemblyPII: 15.709 [ms]
[OGL LOG][Proc: 0]: global_index_init: 0.093 [ms]
[OGL LOG][Proc: 0]p_local_coeffs: call_update: 0 [ms]
[OGL LOG][Proc: 0]p_non_local_coeffs: call_update: 0 [ms]
[OGL LOG][Proc: 0]p: update_local_matrix_data: 25.019 [ms]
[OGL LOG][Proc: 0]p: update_non_local_matrix_data: 0.658 [ms]
[OGL LOG][Proc: 0]p: regenerate_distributed_matrix: 48.991 [ms]
[OGL LOG][Proc: 0]p_matrix: call_update: 61.195 [ms]
[OGL LOG][Proc: 0]p_rhs: call_update: 1.171 [ms]
[OGL LOG][Preconditioner.H:346] Generate preconditioner Multigrid MaxLevels 9 MinCoarseRows 10 ZeroGuess 1 Cycle v
[OGL LOG][Proc: 0]p: init_precond: 1611.12 [ms]
[OGL LOG][StoppingCriterion.H:239] Creating stopping criterion with minIter 261 frequency 9
[OGL LOG][Proc: 0]p: generate_solver: 0.011 [ms]
[OGL LOG][Proc: 0]p: solve: 16986.9 [ms]
[OGL LOG][Proc: 0]p: copy_x_back: 0.53 [ms]
[OGL LOG][lduLduBase.H:330] 
Statistics:
	Time per iteration: 39230 [mu s]
	Time per residual norm calculation: 11825.000000 [mu s]
	Time per iteration and DOF: 4.903750 [ns]
	Retrieve results bandwidth 1.652000 [GByte/s]
[OGL LOG][Proc: 0]p: solve_multi_gpu: 18770.1 [ms]
MultigridcudaGKOCG:  Solving for p, Initial residual = 0.580395, Final residual = 8.35009e-05, No Iterations 433
[INFO] SolveP: 18801.2 [ms]
time step continuity errors : sum local = 5.41221e-09, global = -1.30295e-20, cumulative = -1.16965e-19
[INFO] ContinuityError: 8.063 [ms]
[INFO] CorrectBoundary: 2.455 [ms]
[INFO] PISOStep: 18922.4 [ms]
[INFO] MatrixAssemblyPI: 63.18 [ms]
[INFO] AdjustPhi: 3.946 [ms]
[INFO] ConstrainPressure: 0.004 [ms]
[INFO] MatrixAssemblyPII: 15.55 [ms]
[OGL LOG][Proc: 0]: global_index_init: 0.054 [ms]
[OGL LOG][Proc: 0]p_local_coeffs: call_update: 0 [ms]
[OGL LOG][Proc: 0]p_non_local_coeffs: call_update: 0 [ms]
[OGL LOG][Proc: 0]p: update_local_matrix_data: 29.228 [ms]
[OGL LOG][Proc: 0]p: update_non_local_matrix_data: 0.584 [ms]
[OGL LOG][Proc: 0]p: regenerate_distributed_matrix: 46.55 [ms]
[OGL LOG][Proc: 0]p_matrix: call_update: 59.741 [ms]
[OGL LOG][Proc: 0]p_rhs: call_update: 1.54 [ms]
[OGL LOG][Preconditioner.H:346] Generate preconditioner Multigrid MaxLevels 9 MinCoarseRows 10 ZeroGuess 1 Cycle v
[OGL LOG][Proc: 0]p: init_precond: 1589.96 [ms]
[OGL LOG][StoppingCriterion.H:239] Creating stopping criterion with minIter 259 frequency 7
[OGL LOG][Proc: 0]p: generate_solver: 0.01 [ms]
[OGL LOG][Proc: 0]p: solve: 16869.3 [ms]
[OGL LOG][Proc: 0]p: copy_x_back: 0.897 [ms]
[OGL LOG][lduLduBase.H:330] 
Statistics:
	Time per iteration: 39414 [mu s]
	Time per residual norm calculation: 12402.000000 [mu s]
	Time per iteration and DOF: 4.926750 [ns]
	Retrieve results bandwidth 0.976000 [GByte/s]
[OGL LOG][Proc: 0]p: solve_multi_gpu: 18623.5 [ms]
MultigridcudaGKOCG:  Solving for p, Initial residual = 0.526102, Final residual = 9.15232e-05, No Iterations 428
[INFO] SolveP: 18657.7 [ms]
time step continuity errors : sum local = 5.92625e-09, global = -1.20152e-20, cumulative = -1.28981e-19
[INFO] ContinuityError: 8.465 [ms]
[INFO] CorrectBoundary: 0.554 [ms]
[INFO] PISOStep: 18778.6 [ms]
[INFO] TimeStep: 38138.3 [ms]
ExecutionTime = 330.5 s  ClockTime = 350 s

Time = 0.0025

Courant Number mean: 0.0460125 max: 0.481205
[INFO] MatrixAssemblyU: 58.902 [ms]
DILUPBiCGStab:  Solving for Ux, Initial residual = 0.0111266, Final residual = 0.000405996, No Iterations 5
DILUPBiCGStab:  Solving for Uy, Initial residual = 0.0302627, Final residual = 0.0012377, No Iterations 5
DILUPBiCGStab:  Solving for Uz, Initial residual = 0.128644, Final residual = 0.00714577, No Iterations 5
[INFO] MomentumPredictor: 381.349 [ms]
[INFO] MatrixAssemblyPI: 64.08 [ms]
[INFO] AdjustPhi: 5.541 [ms]
[INFO] ConstrainPressure: 0.003 [ms]
[INFO] MatrixAssemblyPII: 15.331 [ms]
[OGL LOG][Proc: 0]: global_index_init: 0.118 [ms]
[OGL LOG][Proc: 0]p_local_coeffs: call_update: 0 [ms]
[OGL LOG][Proc: 0]p_non_local_coeffs: call_update: 0 [ms]
[OGL LOG][Proc: 0]p: update_local_matrix_data: 41.107 [ms]
[OGL LOG][Proc: 0]p: update_non_local_matrix_data: 0.635 [ms]
[OGL LOG][Proc: 0]p: regenerate_distributed_matrix: 50.979 [ms]
[OGL LOG][Proc: 0]p_matrix: call_update: 52.053 [ms]
[OGL LOG][Proc: 0]p_rhs: call_update: 20.652 [ms]
[OGL LOG][Preconditioner.H:346] Generate preconditioner Multigrid MaxLevels 9 MinCoarseRows 10 ZeroGuess 1 Cycle v
[OGL LOG][Proc: 0]p: init_precond: 1494.41 [ms]
[OGL LOG][StoppingCriterion.H:239] Creating stopping criterion with minIter 256 frequency 7
[OGL LOG][Proc: 0]p: generate_solver: 0.01 [ms]
[OGL LOG][Proc: 0]p: solve: 17250.5 [ms]
[OGL LOG][Proc: 0]p: copy_x_back: 0.56 [ms]
[OGL LOG][lduLduBase.H:330] 
Statistics:
	Time per iteration: 39656 [mu s]
	Time per residual norm calculation: 11848.000000 [mu s]
	Time per iteration and DOF: 4.957000 [ns]
	Retrieve results bandwidth 1.564000 [GByte/s]
[OGL LOG][Proc: 0]p: solve_multi_gpu: 18930.3 [ms]
MultigridcudaGKOCG:  Solving for p, Initial residual = 0.505215, Final residual = 8.48189e-05, No Iterations 435
[INFO] SolveP: 18975.6 [ms]
time step continuity errors : sum local = 5.34865e-09, global = -1.16655e-20, cumulative = -1.40646e-19
[INFO] ContinuityError: 7.485 [ms]
[INFO] CorrectBoundary: 1.945 [ms]
[INFO] PISOStep: 19095.3 [ms]
[INFO] MatrixAssemblyPI: 62.244 [ms]
[INFO] AdjustPhi: 4.865 [ms]
[INFO] ConstrainPressure: 0.005 [ms]
[INFO] MatrixAssemblyPII: 15.307 [ms]
[OGL LOG][Proc: 0]: global_index_init: 0.054 [ms]
[OGL LOG][Proc: 0]p_local_coeffs: call_update: 0 [ms]
[OGL LOG][Proc: 0]p_non_local_coeffs: call_update: 0 [ms]
[OGL LOG][Proc: 0]p: update_local_matrix_data: 30.614 [ms]
[OGL LOG][Proc: 0]p: update_non_local_matrix_data: 0.59 [ms]
[OGL LOG][Proc: 0]p: regenerate_distributed_matrix: 46.78 [ms]
[OGL LOG][Proc: 0]p_matrix: call_update: 58.745 [ms]
[OGL LOG][Proc: 0]p_rhs: call_update: 1.596 [ms]
[OGL LOG][Preconditioner.H:346] Generate preconditioner Multigrid MaxLevels 9 MinCoarseRows 10 ZeroGuess 1 Cycle v
[OGL LOG][Proc: 0]p: init_precond: 1575.93 [ms]
[OGL LOG][StoppingCriterion.H:239] Creating stopping criterion with minIter 261 frequency 7
[OGL LOG][Proc: 0]p: generate_solver: 0.01 [ms]
[OGL LOG][Proc: 0]p: solve: 17167.1 [ms]
[OGL LOG][Proc: 0]p: copy_x_back: 0.885 [ms]
[OGL LOG][lduLduBase.H:330] 
Statistics:
	Time per iteration: 39464 [mu s]
	Time per residual norm calculation: 11804.000000 [mu s]
	Time per iteration and DOF: 4.933000 [ns]
	Retrieve results bandwidth 0.989000 [GByte/s]
[OGL LOG][Proc: 0]p: solve_multi_gpu: 18906.3 [ms]
MultigridcudaGKOCG:  Solving for p, Initial residual = 0.457738, Final residual = 8.08531e-05, No Iterations 435
[INFO] SolveP: 18940.8 [ms]
time step continuity errors : sum local = 5.07973e-09, global = -1.35439e-20, cumulative = -1.5419e-19
[INFO] ContinuityError: 8.237 [ms]
[INFO] CorrectBoundary: 0.604 [ms]
[INFO] PISOStep: 19061.9 [ms]
[INFO] TimeStep: 38605.8 [ms]
ExecutionTime = 368.76 s  ClockTime = 389 s

Time = 0.00275

Courant Number mean: 0.0479122 max: 0.482074
[INFO] MatrixAssemblyU: 59.845 [ms]
DILUPBiCGStab:  Solving for Ux, Initial residual = 0.00996892, Final residual = 0.00033266, No Iterations 5
DILUPBiCGStab:  Solving for Uy, Initial residual = 0.0257517, Final residual = 0.0009428, No Iterations 5
DILUPBiCGStab:  Solving for Uz, Initial residual = 0.109812, Final residual = 0.00670085, No Iterations 5
[INFO] MomentumPredictor: 369.421 [ms]
[INFO] MatrixAssemblyPI: 64.726 [ms]
[INFO] AdjustPhi: 4.096 [ms]
[INFO] ConstrainPressure: 0.003 [ms]
[INFO] MatrixAssemblyPII: 15.375 [ms]
[OGL LOG][Proc: 0]: global_index_init: 0.249 [ms]
[OGL LOG][Proc: 0]p_local_coeffs: call_update: 0 [ms]
[OGL LOG][Proc: 0]p_non_local_coeffs: call_update: 0 [ms]
[OGL LOG][Proc: 0]p: update_local_matrix_data: 29.826 [ms]
[OGL LOG][Proc: 0]p: update_non_local_matrix_data: 0.67 [ms]
[OGL LOG][Proc: 0]p: regenerate_distributed_matrix: 48.033 [ms]
[OGL LOG][Proc: 0]p_matrix: call_update: 61.758 [ms]
[OGL LOG][Proc: 0]p_rhs: call_update: 2.513 [ms]
[OGL LOG][Preconditioner.H:346] Generate preconditioner Multigrid MaxLevels 9 MinCoarseRows 10 ZeroGuess 1 Cycle v
[OGL LOG][Proc: 0]p: init_precond: 1620.89 [ms]
[OGL LOG][StoppingCriterion.H:239] Creating stopping criterion with minIter 261 frequency 7
[OGL LOG][Proc: 0]p: generate_solver: 0.011 [ms]
[OGL LOG][Proc: 0]p: solve: 15986.2 [ms]
[OGL LOG][Proc: 0]p: copy_x_back: 0.552 [ms]
[OGL LOG][lduLduBase.H:330] 
Statistics:
	Time per iteration: 39278 [mu s]
	Time per residual norm calculation: 11840.000000 [mu s]
	Time per iteration and DOF: 4.909750 [ns]
	Retrieve results bandwidth 1.586000 [GByte/s]
[OGL LOG][Proc: 0]p: solve_multi_gpu: 17770.7 [ms]
MultigridcudaGKOCG:  Solving for p, Initial residual = 0.484289, Final residual = 8.20663e-05, No Iterations 407
[INFO] SolveP: 17805.2 [ms]
time step continuity errors : sum local = 4.68148e-09, global = -1.3338e-20, cumulative = -1.67528e-19
[INFO] ContinuityError: 9.143 [ms]
[INFO] CorrectBoundary: 3.249 [ms]
[INFO] PISOStep: 17926.4 [ms]
[INFO] MatrixAssemblyPI: 62.092 [ms]
[INFO] AdjustPhi: 4.198 [ms]
[INFO] ConstrainPressure: 0.003 [ms]
[INFO] MatrixAssemblyPII: 15.109 [ms]
[OGL LOG][Proc: 0]: global_index_init: 0.061 [ms]
[OGL LOG][Proc: 0]p_local_coeffs: call_update: 0 [ms]
[OGL LOG][Proc: 0]p_non_local_coeffs: call_update: 0 [ms]
[OGL LOG][Proc: 0]p: update_local_matrix_data: 30.256 [ms]
[OGL LOG][Proc: 0]p: update_non_local_matrix_data: 0.601 [ms]
[OGL LOG][Proc: 0]p: regenerate_distributed_matrix: 49.541 [ms]
[OGL LOG][Proc: 0]p_matrix: call_update: 59.337 [ms]
[OGL LOG][Proc: 0]p_rhs: call_update: 0.204 [ms]
[OGL LOG][Preconditioner.H:346] Generate preconditioner Multigrid MaxLevels 9 MinCoarseRows 10 ZeroGuess 1 Cycle v
[OGL LOG][Proc: 0]p: init_precond: 1596.38 [ms]
[OGL LOG][StoppingCriterion.H:239] Creating stopping criterion with minIter 244 frequency 7
[OGL LOG][Proc: 0]p: generate_solver: 0.01 [ms]
[OGL LOG][Proc: 0]p: solve: 15779 [ms]
[OGL LOG][Proc: 0]p: copy_x_back: 0.909 [ms]
[OGL LOG][lduLduBase.H:330] 
Statistics:
	Time per iteration: 39447 [mu s]
	Time per residual norm calculation: 11810.000000 [mu s]
	Time per iteration and DOF: 4.930875 [ns]
	Retrieve results bandwidth 0.963000 [GByte/s]
[OGL LOG][Proc: 0]p: solve_multi_gpu: 17537.9 [ms]
MultigridcudaGKOCG:  Solving for p, Initial residual = 0.435922, Final residual = 9.88983e-05, No Iterations 400
[INFO] SolveP: 17571.9 [ms]
time step continuity errors : sum local = 5.64549e-09, global = -1.53468e-20, cumulative = -1.82875e-19
[INFO] ContinuityError: 6.653 [ms]
[INFO] CorrectBoundary: 0.507 [ms]
[INFO] PISOStep: 17690.6 [ms]
[INFO] TimeStep: 36052.6 [ms]
ExecutionTime = 404.63 s  ClockTime = 425 s

Time = 0.003

Courant Number mean: 0.0496574 max: 0.482823
[INFO] MatrixAssemblyU: 59.291 [ms]
DILUPBiCGStab:  Solving for Ux, Initial residual = 0.0088671, Final residual = 0.00028077, No Iterations 5
DILUPBiCGStab:  Solving for Uy, Initial residual = 0.0230002, Final residual = 0.000770877, No Iterations 5
DILUPBiCGStab:  Solving for Uz, Initial residual = 0.0930003, Final residual = 0.00583876, No Iterations 5
[INFO] MomentumPredictor: 371.176 [ms]
[INFO] MatrixAssemblyPI: 64.489 [ms]
[INFO] AdjustPhi: 3.7 [ms]
[INFO] ConstrainPressure: 0.003 [ms]
[INFO] MatrixAssemblyPII: 15.484 [ms]
[OGL LOG][Proc: 0]: global_index_init: 0.06 [ms]
[OGL LOG][Proc: 0]p_local_coeffs: call_update: 0 [ms]
[OGL LOG][Proc: 0]p_non_local_coeffs: call_update: 0 [ms]
[OGL LOG][Proc: 0]p: update_local_matrix_data: 30.289 [ms]
[OGL LOG][Proc: 0]p: update_non_local_matrix_data: 0.648 [ms]
[OGL LOG][Proc: 0]p: regenerate_distributed_matrix: 49.976 [ms]
[OGL LOG][Proc: 0]p_matrix: call_update: 61.276 [ms]
[OGL LOG][Proc: 0]p_rhs: call_update: 0.432 [ms]
[OGL LOG][Preconditioner.H:346] Generate preconditioner Multigrid MaxLevels 9 MinCoarseRows 10 ZeroGuess 1 Cycle v
[OGL LOG][Proc: 0]p: init_precond: 1604.58 [ms]
[OGL LOG][StoppingCriterion.H:239] Creating stopping criterion with minIter 240 frequency 7
[OGL LOG][Proc: 0]p: generate_solver: 0.01 [ms]
[OGL LOG][Proc: 0]p: solve: 16892.5 [ms]
[OGL LOG][Proc: 0]p: copy_x_back: 0.52 [ms]
[OGL LOG][lduLduBase.H:330] 
Statistics:
	Time per iteration: 39468 [mu s]
	Time per residual norm calculation: 12705.000000 [mu s]
	Time per iteration and DOF: 4.933500 [ns]
	Retrieve results bandwidth 1.684000 [GByte/s]
[OGL LOG][Proc: 0]p: solve_multi_gpu: 18663.5 [ms]
MultigridcudaGKOCG:  Solving for p, Initial residual = 0.428331, Final residual = 9.59677e-05, No Iterations 428
[INFO] SolveP: 18699 [ms]
time step continuity errors : sum local = 5.3395e-09, global = -1.26137e-20, cumulative = -1.95489e-19
[INFO] ContinuityError: 9.705 [ms]
[INFO] CorrectBoundary: 3.466 [ms]
[INFO] PISOStep: 18819 [ms]
[INFO] MatrixAssemblyPI: 61.656 [ms]
[INFO] AdjustPhi: 4.416 [ms]
[INFO] ConstrainPressure: 0.004 [ms]
[INFO] MatrixAssemblyPII: 15.262 [ms]
[OGL LOG][Proc: 0]: global_index_init: 0.043 [ms]
[OGL LOG][Proc: 0]p_local_coeffs: call_update: 0 [ms]
[OGL LOG][Proc: 0]p_non_local_coeffs: call_update: 0 [ms]
[OGL LOG][Proc: 0]p: update_local_matrix_data: 30.372 [ms]
[OGL LOG][Proc: 0]p: update_non_local_matrix_data: 0.584 [ms]
[OGL LOG][Proc: 0]p: regenerate_distributed_matrix: 45.545 [ms]
[OGL LOG][Proc: 0]p_matrix: call_update: 58.386 [ms]
[OGL LOG][Proc: 0]p_rhs: call_update: 2.092 [ms]
[OGL LOG][Preconditioner.H:346] Generate preconditioner Multigrid MaxLevels 9 MinCoarseRows 10 ZeroGuess 1 Cycle v
[OGL LOG][Proc: 0]p: init_precond: 1593.59 [ms]
[OGL LOG][StoppingCriterion.H:239] Creating stopping criterion with minIter 256 frequency 7
[OGL LOG][Proc: 0]p: generate_solver: 0.01 [ms]
[OGL LOG][Proc: 0]p: solve: 16866.1 [ms]
[OGL LOG][Proc: 0]p: copy_x_back: 1.123 [ms]
[OGL LOG][lduLduBase.H:330] 
Statistics:
	Time per iteration: 39406 [mu s]
	Time per residual norm calculation: 11047.000000 [mu s]
	Time per iteration and DOF: 4.925750 [ns]
	Retrieve results bandwidth 0.779000 [GByte/s]
[OGL LOG][Proc: 0]p: solve_multi_gpu: 18630.4 [ms]
MultigridcudaGKOCG:  Solving for p, Initial residual = 0.387013, Final residual = 9.19849e-05, No Iterations 428
[INFO] SolveP: 18664.6 [ms]
time step continuity errors : sum local = 5.0988e-09, global = -1.22936e-20, cumulative = -2.07782e-19
[INFO] ContinuityError: 7.392 [ms]
[INFO] CorrectBoundary: 0.622 [ms]
[INFO] PISOStep: 18782.9 [ms]
[INFO] TimeStep: 38039.1 [ms]
ExecutionTime = 442.5 s  ClockTime = 463 s

Time = 0.00325

Courant Number mean: 0.0512788 max: 0.483456
[INFO] MatrixAssemblyU: 60.569 [ms]
DILUPBiCGStab:  Solving for Ux, Initial residual = 0.00804943, Final residual = 0.00023503, No Iterations 5
DILUPBiCGStab:  Solving for Uy, Initial residual = 0.0201921, Final residual = 0.000604277, No Iterations 5
DILUPBiCGStab:  Solving for Uz, Initial residual = 0.0805407, Final residual = 0.00528762, No Iterations 5
[INFO] MomentumPredictor: 370.126 [ms]
[INFO] MatrixAssemblyPI: 64.722 [ms]
[INFO] AdjustPhi: 3.405 [ms]
[INFO] ConstrainPressure: 0.003 [ms]
[INFO] MatrixAssemblyPII: 15.603 [ms]
[OGL LOG][Proc: 0]: global_index_init: 0.06 [ms]
[OGL LOG][Proc: 0]p_local_coeffs: call_update: 0 [ms]
[OGL LOG][Proc: 0]p_non_local_coeffs: call_update: 0 [ms]
[OGL LOG][Proc: 0]p: update_local_matrix_data: 30.776 [ms]
[OGL LOG][Proc: 0]p: update_non_local_matrix_data: 0.675 [ms]
[OGL LOG][Proc: 0]p: regenerate_distributed_matrix: 46.523 [ms]
[OGL LOG][Proc: 0]p_matrix: call_update: 59.072 [ms]
[OGL LOG][Proc: 0]p_rhs: call_update: 3.033 [ms]
[OGL LOG][Preconditioner.H:346] Generate preconditioner Multigrid MaxLevels 9 MinCoarseRows 10 ZeroGuess 1 Cycle v
[OGL LOG][Proc: 0]p: init_precond: 1620.95 [ms]
[OGL LOG][StoppingCriterion.H:239] Creating stopping criterion with minIter 256 frequency 7
[OGL LOG][Proc: 0]p: generate_solver: 0.011 [ms]
[OGL LOG][Proc: 0]p: solve: 15728.6 [ms]
[OGL LOG][Proc: 0]p: copy_x_back: 0.733 [ms]
[OGL LOG][lduLduBase.H:330] 
Statistics:
	Time per iteration: 39321 [mu s]
	Time per residual norm calculation: 10639.000000 [mu s]
	Time per iteration and DOF: 4.915125 [ns]
	Retrieve results bandwidth 1.195000 [GByte/s]
[OGL LOG][Proc: 0]p: solve_multi_gpu: 17494.8 [ms]
MultigridcudaGKOCG:  Solving for p, Initial residual = 0.402203, Final residual = 8.9011e-05, No Iterations 400
[INFO] SolveP: 17533.6 [ms]
time step continuity errors : sum local = 4.63843e-09, global = -1.3044e-20, cumulative = -2.20826e-19
[INFO] ContinuityError: 8.579 [ms]
[INFO] CorrectBoundary: 1.695 [ms]
[INFO] PISOStep: 17650.5 [ms]
[INFO] MatrixAssemblyPI: 62.677 [ms]
[INFO] AdjustPhi: 5.787 [ms]
[INFO] ConstrainPressure: 0.004 [ms]
[INFO] MatrixAssemblyPII: 15.2 [ms]
[OGL LOG][Proc: 0]: global_index_init: 0.068 [ms]
[OGL LOG][Proc: 0]p_local_coeffs: call_update: 0 [ms]
[OGL LOG][Proc: 0]p_non_local_coeffs: call_update: 0 [ms]
[OGL LOG][Proc: 0]p: update_local_matrix_data: 30.16 [ms]
[OGL LOG][Proc: 0]p: update_non_local_matrix_data: 0.743 [ms]
[OGL LOG][Proc: 0]p: regenerate_distributed_matrix: 48.376 [ms]
[OGL LOG][Proc: 0]p_matrix: call_update: 59.456 [ms]
[OGL LOG][Proc: 0]p_rhs: call_update: 0.358 [ms]
[OGL LOG][Preconditioner.H:346] Generate preconditioner Multigrid MaxLevels 9 MinCoarseRows 10 ZeroGuess 1 Cycle v
[OGL LOG][Proc: 0]p: init_precond: 1597.97 [ms]
[OGL LOG][StoppingCriterion.H:239] Creating stopping criterion with minIter 240 frequency 7
[OGL LOG][Proc: 0]p: generate_solver: 0.011 [ms]
[OGL LOG][Proc: 0]p: solve: 15773.2 [ms]
[OGL LOG][Proc: 0]p: copy_x_back: 0.514 [ms]
[OGL LOG][lduLduBase.H:330] 
Statistics:
	Time per iteration: 39432 [mu s]
	Time per residual norm calculation: 13024.000000 [mu s]
	Time per iteration and DOF: 4.929000 [ns]
	Retrieve results bandwidth 1.704000 [GByte/s]
[OGL LOG][Proc: 0]p: solve_multi_gpu: 17522.7 [ms]
MultigridcudaGKOCG:  Solving for p, Initial residual = 0.361147, Final residual = 8.59527e-05, No Iterations 400
[INFO] SolveP: 17556.6 [ms]
time step continuity errors : sum local = 4.48382e-09, global = -1.33347e-20, cumulative = -2.34161e-19
[INFO] ContinuityError: 13.483 [ms]
[INFO] CorrectBoundary: 1.99 [ms]
[INFO] PISOStep: 17678.8 [ms]
[INFO] TimeStep: 35768.2 [ms]
ExecutionTime = 478.08 s  ClockTime = 499 s

Time = 0.0035

Courant Number mean: 0.0527869 max: 0.484023
[INFO] MatrixAssemblyU: 56.792 [ms]
DILUPBiCGStab:  Solving for Ux, Initial residual = 0.00730323, Final residual = 0.00020366, No Iterations 5
DILUPBiCGStab:  Solving for Uy, Initial residual = 0.01831, Final residual = 0.000496155, No Iterations 5
DILUPBiCGStab:  Solving for Uz, Initial residual = 0.0700469, Final residual = 0.00471319, No Iterations 5
[INFO] MomentumPredictor: 379.152 [ms]
[INFO] MatrixAssemblyPI: 64.218 [ms]
[INFO] AdjustPhi: 6.185 [ms]
[INFO] ConstrainPressure: 0.003 [ms]
[INFO] MatrixAssemblyPII: 15.459 [ms]
[OGL LOG][Proc: 0]: global_index_init: 0.047 [ms]
[OGL LOG][Proc: 0]p_local_coeffs: call_update: 0 [ms]
[OGL LOG][Proc: 0]p_non_local_coeffs: call_update: 0 [ms]
[OGL LOG][Proc: 0]p: update_local_matrix_data: 30.812 [ms]
[OGL LOG][Proc: 0]p: update_non_local_matrix_data: 0.605 [ms]
[OGL LOG][Proc: 0]p: regenerate_distributed_matrix: 50.517 [ms]
[OGL LOG][Proc: 0]p_matrix: call_update: 62.024 [ms]
[OGL LOG][Proc: 0]p_rhs: call_update: 0.522 [ms]
[OGL LOG][Preconditioner.H:346] Generate preconditioner Multigrid MaxLevels 9 MinCoarseRows 10 ZeroGuess 1 Cycle v
[OGL LOG][Proc: 0]p: init_precond: 1602.57 [ms]
[OGL LOG][StoppingCriterion.H:239] Creating stopping criterion with minIter 240 frequency 7
[OGL LOG][Proc: 0]p: generate_solver: 0.011 [ms]
[OGL LOG][Proc: 0]p: solve: 16055.8 [ms]
[OGL LOG][Proc: 0]p: copy_x_back: 0.934 [ms]
[OGL LOG][lduLduBase.H:330] 
Statistics:
	Time per iteration: 39449 [mu s]
	Time per residual norm calculation: 10571.000000 [mu s]
	Time per iteration and DOF: 4.931125 [ns]
	Retrieve results bandwidth 0.937000 [GByte/s]
[OGL LOG][Proc: 0]p: solve_multi_gpu: 17824.9 [ms]
MultigridcudaGKOCG:  Solving for p, Initial residual = 0.361775, Final residual = 9.42655e-05, No Iterations 407
[INFO] SolveP: 17861 [ms]
time step continuity errors : sum local = 4.77669e-09, global = -1.26866e-20, cumulative = -2.46848e-19
[INFO] ContinuityError: 6.296 [ms]
[INFO] CorrectBoundary: 0.82 [ms]
[INFO] PISOStep: 17984.1 [ms]
[INFO] MatrixAssemblyPI: 63.976 [ms]
[INFO] AdjustPhi: 3.181 [ms]
[INFO] ConstrainPressure: 0.004 [ms]
[INFO] MatrixAssemblyPII: 16.303 [ms]
[OGL LOG][Proc: 0]: global_index_init: 0.088 [ms]
[OGL LOG][Proc: 0]p_local_coeffs: call_update: 0 [ms]
[OGL LOG][Proc: 0]p_non_local_coeffs: call_update: 0 [ms]
[OGL LOG][Proc: 0]p: update_local_matrix_data: 30.506 [ms]
[OGL LOG][Proc: 0]p: update_non_local_matrix_data: 0.672 [ms]
[OGL LOG][Proc: 0]p: regenerate_distributed_matrix: 43.496 [ms]
[OGL LOG][Proc: 0]p_matrix: call_update: 56.795 [ms]
[OGL LOG][Proc: 0]p_rhs: call_update: 3.643 [ms]
[OGL LOG][Preconditioner.H:346] Generate preconditioner Multigrid MaxLevels 9 MinCoarseRows 10 ZeroGuess 1 Cycle v
[OGL LOG][Proc: 0]p: init_precond: 1597.02 [ms]
[OGL LOG][StoppingCriterion.H:239] Creating stopping criterion with minIter 244 frequency 7
[OGL LOG][Proc: 0]p: generate_solver: 0.011 [ms]
[OGL LOG][Proc: 0]p: solve: 16061.3 [ms]
[OGL LOG][Proc: 0]p: copy_x_back: 0.55 [ms]
[OGL LOG][lduLduBase.H:330] 
Statistics:
	Time per iteration: 39462 [mu s]
	Time per residual norm calculation: 13377.000000 [mu s]
	Time per iteration and DOF: 4.932750 [ns]
	Retrieve results bandwidth 1.592000 [GByte/s]
[OGL LOG][Proc: 0]p: solve_multi_gpu: 17821.3 [ms]
MultigridcudaGKOCG:  Solving for p, Initial residual = 0.326354, Final residual = 9.12208e-05, No Iterations 407
[INFO] SolveP: 17856.8 [ms]
time step continuity errors : sum local = 4.60756e-09, global = -1.66496e-20, cumulative = -2.63497e-19
[INFO] ContinuityError: 9.379 [ms]
[INFO] CorrectBoundary: 1.479 [ms]
[INFO] PISOStep: 17976.6 [ms]
[INFO] TimeStep: 36403.2 [ms]
ExecutionTime = 514.28 s  ClockTime = 535 s

Time = 0.00375

Courant Number mean: 0.0542007 max: 0.484511
[INFO] MatrixAssemblyU: 54.195 [ms]
DILUPBiCGStab:  Solving for Ux, Initial residual = 0.00669561, Final residual = 0.000173392, No Iterations 5
DILUPBiCGStab:  Solving for Uy, Initial residual = 0.0164264, Final residual = 0.000406109, No Iterations 5
DILUPBiCGStab:  Solving for Uz, Initial residual = 0.0615056, Final residual = 0.00425236, No Iterations 5
[INFO] MomentumPredictor: 371.417 [ms]
[INFO] MatrixAssemblyPI: 64.203 [ms]
[INFO] AdjustPhi: 3.198 [ms]
[INFO] ConstrainPressure: 0.004 [ms]
[INFO] MatrixAssemblyPII: 15.55 [ms]
[OGL LOG][Proc: 0]: global_index_init: 0.065 [ms]
[OGL LOG][Proc: 0]p_local_coeffs: call_update: 0 [ms]
[OGL LOG][Proc: 0]p_non_local_coeffs: call_update: 0 [ms]
[OGL LOG][Proc: 0]p: update_local_matrix_data: 29.638 [ms]
[OGL LOG][Proc: 0]p: update_non_local_matrix_data: 0.558 [ms]
[OGL LOG][Proc: 0]p: regenerate_distributed_matrix: 49.878 [ms]
[OGL LOG][Proc: 0]p_matrix: call_update: 61.711 [ms]
[OGL LOG][Proc: 0]p_rhs: call_update: 0.639 [ms]
[OGL LOG][Preconditioner.H:346] Generate preconditioner Multigrid MaxLevels 9 MinCoarseRows 10 ZeroGuess 1 Cycle v
[OGL LOG][Proc: 0]p: init_precond: 1598.39 [ms]
[OGL LOG][StoppingCriterion.H:239] Creating stopping criterion with minIter 244 frequency 9
[OGL LOG][Proc: 0]p: generate_solver: 0.011 [ms]
[OGL LOG][Proc: 0]p: solve: 15587.8 [ms]
[OGL LOG][Proc: 0]p: copy_x_back: 1.031 [ms]
[OGL LOG][lduLduBase.H:330] 
Statistics:
	Time per iteration: 39264 [mu s]
	Time per residual norm calculation: 10890.000000 [mu s]
	Time per iteration and DOF: 4.908000 [ns]
	Retrieve results bandwidth 0.849000 [GByte/s]
[OGL LOG][Proc: 0]p: solve_multi_gpu: 17359.3 [ms]
MultigridcudaGKOCG:  Solving for p, Initial residual = 0.334508, Final residual = 8.50978e-05, No Iterations 397
[INFO] SolveP: 17392.4 [ms]
time step continuity errors : sum local = 4.14307e-09, global = -1.20616e-20, cumulative = -2.75559e-19
[INFO] ContinuityError: 7.029 [ms]
[INFO] CorrectBoundary: 0.882 [ms]
[INFO] PISOStep: 17511.8 [ms]
[INFO] MatrixAssemblyPI: 63.202 [ms]
[INFO] AdjustPhi: 3.287 [ms]
[INFO] ConstrainPressure: 0.003 [ms]
[INFO] MatrixAssemblyPII: 16.366 [ms]
[OGL LOG][Proc: 0]: global_index_init: 0.192 [ms]
[OGL LOG][Proc: 0]p_local_coeffs: call_update: 0 [ms]
[OGL LOG][Proc: 0]p_non_local_coeffs: call_update: 0 [ms]
[OGL LOG][Proc: 0]p: update_local_matrix_data: 29.36 [ms]
[OGL LOG][Proc: 0]p: update_non_local_matrix_data: 0.633 [ms]
[OGL LOG][Proc: 0]p: regenerate_distributed_matrix: 49.316 [ms]
[OGL LOG][Proc: 0]p_matrix: call_update: 59.757 [ms]
[OGL LOG][Proc: 0]p_rhs: call_update: 0.202 [ms]
[OGL LOG][Preconditioner.H:346] Generate preconditioner Multigrid MaxLevels 9 MinCoarseRows 10 ZeroGuess 1 Cycle v
[OGL LOG][Proc: 0]p: init_precond: 1594.7 [ms]
[OGL LOG][StoppingCriterion.H:239] Creating stopping criterion with minIter 238 frequency 7
[OGL LOG][Proc: 0]p: generate_solver: 0.01 [ms]
[OGL LOG][Proc: 0]p: solve: 9634.27 [ms]
[OGL LOG][Proc: 0]p: copy_x_back: 0.634 [ms]
[OGL LOG][lduLduBase.H:330] 
Statistics:
	Time per iteration: 39163 [mu s]
	Time per residual norm calculation: 10472.000000 [mu s]
	Time per iteration and DOF: 4.895375 [ns]
	Retrieve results bandwidth 1.381000 [GByte/s]
[OGL LOG][Proc: 0]p: solve_multi_gpu: 11392.6 [ms]
MultigridcudaGKOCG:  Solving for p, Initial residual = 0.300057, Final residual = 9.29736e-05, No Iterations 246
[INFO] SolveP: 11429.4 [ms]
time step continuity errors : sum local = 4.80669e-09, global = -1.26372e-20, cumulative = -2.88196e-19
[INFO] ContinuityError: 6.943 [ms]
[INFO] CorrectBoundary: 1.063 [ms]
[INFO] PISOStep: 11547.4 [ms]
[INFO] TimeStep: 29496.1 [ms]
ExecutionTime = 543.62 s  ClockTime = 565 s

Time = 0.004

Courant Number mean: 0.0555258 max: 0.484957
[INFO] MatrixAssemblyU: 55.096 [ms]
DILUPBiCGStab:  Solving for Ux, Initial residual = 0.00616838, Final residual = 0.000153435, No Iterations 5
DILUPBiCGStab:  Solving for Uy, Initial residual = 0.0150703, Final residual = 0.000332728, No Iterations 5
DILUPBiCGStab:  Solving for Uz, Initial residual = 0.0547311, Final residual = 0.00383536, No Iterations 5
[INFO] MomentumPredictor: 369.823 [ms]
[INFO] MatrixAssemblyPI: 64.21 [ms]
[INFO] AdjustPhi: 3.049 [ms]
[INFO] ConstrainPressure: 0.003 [ms]
[INFO] MatrixAssemblyPII: 15.552 [ms]
[OGL LOG][Proc: 0]: global_index_init: 0.061 [ms]
[OGL LOG][Proc: 0]p_local_coeffs: call_update: 0 [ms]
[OGL LOG][Proc: 0]p_non_local_coeffs: call_update: 0 [ms]
[OGL LOG][Proc: 0]p: update_local_matrix_data: 30.504 [ms]
[OGL LOG][Proc: 0]p: update_non_local_matrix_data: 0.552 [ms]
[OGL LOG][Proc: 0]p: regenerate_distributed_matrix: 50.53 [ms]
[OGL LOG][Proc: 0]p_matrix: call_update: 61.313 [ms]
[OGL LOG][Proc: 0]p_rhs: call_update: 0.286 [ms]
[OGL LOG][Preconditioner.H:346] Generate preconditioner Multigrid MaxLevels 9 MinCoarseRows 10 ZeroGuess 1 Cycle v
[OGL LOG][Proc: 0]p: init_precond: 1591.27 [ms]
[OGL LOG][StoppingCriterion.H:239] Creating stopping criterion with minIter 147 frequency 5
[OGL LOG][Proc: 0]p: generate_solver: 0.01 [ms]
[OGL LOG][Proc: 0]p: solve: 16147 [ms]
[OGL LOG][Proc: 0]p: copy_x_back: 0.961 [ms]
[OGL LOG][lduLduBase.H:330] 
Statistics:
	Time per iteration: 40266 [mu s]
	Time per residual norm calculation: 12741.000000 [mu s]
	Time per iteration and DOF: 5.033250 [ns]
	Retrieve results bandwidth 0.911000 [GByte/s]
[OGL LOG][Proc: 0]p: solve_multi_gpu: 17905.6 [ms]
MultigridcudaGKOCG:  Solving for p, Initial residual = 0.305243, Final residual = 9.84491e-05, No Iterations 401
[INFO] SolveP: 17940.2 [ms]
time step continuity errors : sum local = 4.63853e-09, global = -1.43946e-20, cumulative = -3.02591e-19
[INFO] ContinuityError: 7.017 [ms]
[INFO] CorrectBoundary: 0.898 [ms]
[INFO] PISOStep: 18059.2 [ms]
[INFO] MatrixAssemblyPI: 63.972 [ms]
[INFO] AdjustPhi: 3.168 [ms]
[INFO] ConstrainPressure: 0.003 [ms]
[INFO] MatrixAssemblyPII: 16.366 [ms]
[OGL LOG][Proc: 0]: global_index_init: 0.061 [ms]
[OGL LOG][Proc: 0]p_local_coeffs: call_update: 0 [ms]
[OGL LOG][Proc: 0]p_non_local_coeffs: call_update: 0 [ms]
[OGL LOG][Proc: 0]p: update_local_matrix_data: 29.095 [ms]
[OGL LOG][Proc: 0]p: update_non_local_matrix_data: 0.663 [ms]
[OGL LOG][Proc: 0]p: regenerate_distributed_matrix: 46.966 [ms]
[OGL LOG][Proc: 0]p_matrix: call_update: 59.763 [ms]
[OGL LOG][Proc: 0]p_rhs: call_update: 1.21 [ms]
[OGL LOG][Preconditioner.H:346] Generate preconditioner Multigrid MaxLevels 9 MinCoarseRows 10 ZeroGuess 1 Cycle v
[OGL LOG][Proc: 0]p: init_precond: 1614 [ms]
[OGL LOG][StoppingCriterion.H:239] Creating stopping criterion with minIter 240 frequency 7
[OGL LOG][Proc: 0]p: generate_solver: 0.011 [ms]
[OGL LOG][Proc: 0]p: solve: 15752.5 [ms]
[OGL LOG][Proc: 0]p: copy_x_back: 0.604 [ms]
[OGL LOG][lduLduBase.H:330] 
Statistics:
	Time per iteration: 39381 [mu s]
	Time per residual norm calculation: 10803.000000 [mu s]
	Time per iteration and DOF: 4.922625 [ns]
	Retrieve results bandwidth 1.450000 [GByte/s]
[OGL LOG][Proc: 0]p: solve_multi_gpu: 17530.8 [ms]
MultigridcudaGKOCG:  Solving for p, Initial residual = 0.274902, Final residual = 9.69629e-05, No Iterations 400
[INFO] SolveP: 17571.6 [ms]
time step continuity errors : sum local = 4.55737e-09, global = -1.18809e-20, cumulative = -3.14471e-19
[INFO] ContinuityError: 9.912 [ms]
[INFO] CorrectBoundary: 1.255 [ms]
[INFO] PISOStep: 17691.4 [ms]
[INFO] TimeStep: 36186.5 [ms]
ExecutionTime = 579.63 s  ClockTime = 601 s

Time = 0.00425

Courant Number mean: 0.0567761 max: 0.485348
[INFO] MatrixAssemblyU: 55.648 [ms]
DILUPBiCGStab:  Solving for Ux, Initial residual = 0.00570046, Final residual = 0.000132388, No Iterations 5
DILUPBiCGStab:  Solving for Uy, Initial residual = 0.0137474, Final residual = 0.000284847, No Iterations 5
DILUPBiCGStab:  Solving for Uz, Initial residual = 0.0490269, Final residual = 0.00348086, No Iterations 5
[INFO] MomentumPredictor: 369.516 [ms]
[INFO] MatrixAssemblyPI: 64.373 [ms]
[INFO] AdjustPhi: 3.46 [ms]
[INFO] ConstrainPressure: 0.003 [ms]
[INFO] MatrixAssemblyPII: 15.535 [ms]
[OGL LOG][Proc: 0]: global_index_init: 0.086 [ms]
[OGL LOG][Proc: 0]p_local_coeffs: call_update: 0 [ms]
[OGL LOG][Proc: 0]p_non_local_coeffs: call_update: 0 [ms]
[OGL LOG][Proc: 0]p: update_local_matrix_data: 30.402 [ms]
[OGL LOG][Proc: 0]p: update_non_local_matrix_data: 0.589 [ms]
[OGL LOG][Proc: 0]p: regenerate_distributed_matrix: 50.153 [ms]
[OGL LOG][Proc: 0]p_matrix: call_update: 61.61 [ms]
[OGL LOG][Proc: 0]p_rhs: call_update: 0.432 [ms]
[OGL LOG][Preconditioner.H:346] Generate preconditioner Multigrid MaxLevels 9 MinCoarseRows 10 ZeroGuess 1 Cycle v
[OGL LOG][Proc: 0]p: init_precond: 1568.1 [ms]
[OGL LOG][StoppingCriterion.H:239] Creating stopping criterion with minIter 240 frequency 7
[OGL LOG][Proc: 0]p: generate_solver: 0.011 [ms]
[OGL LOG][Proc: 0]p: solve: 15520.8 [ms]
[OGL LOG][Proc: 0]p: copy_x_back: 0.562 [ms]
[OGL LOG][lduLduBase.H:330] 
Statistics:
	Time per iteration: 39493 [mu s]
	Time per residual norm calculation: 12440.000000 [mu s]
	Time per iteration and DOF: 4.936625 [ns]
	Retrieve results bandwidth 1.558000 [GByte/s]
[OGL LOG][Proc: 0]p: solve_multi_gpu: 17253.2 [ms]
MultigridcudaGKOCG:  Solving for p, Initial residual = 0.279333, Final residual = 9.43695e-05, No Iterations 393
[INFO] SolveP: 17290.1 [ms]
time step continuity errors : sum local = 4.35004e-09, global = -1.69745e-20, cumulative = -3.31446e-19
[INFO] ContinuityError: 7.949 [ms]
[INFO] CorrectBoundary: 1.104 [ms]
[INFO] PISOStep: 17407.5 [ms]
[INFO] MatrixAssemblyPI: 62.469 [ms]
[INFO] AdjustPhi: 5.013 [ms]
[INFO] ConstrainPressure: 0.003 [ms]
[INFO] MatrixAssemblyPII: 15.963 [ms]
[OGL LOG][Proc: 0]: global_index_init: 0.051 [ms]
[OGL LOG][Proc: 0]p_local_coeffs: call_update: 0 [ms]
[OGL LOG][Proc: 0]p_non_local_coeffs: call_update: 0 [ms]
[OGL LOG][Proc: 0]p: update_local_matrix_data: 28.094 [ms]
[OGL LOG][Proc: 0]p: update_non_local_matrix_data: 0.622 [ms]
[OGL LOG][Proc: 0]p: regenerate_distributed_matrix: 47.305 [ms]
[OGL LOG][Proc: 0]p_matrix: call_update: 58.93 [ms]
[OGL LOG][Proc: 0]p_rhs: call_update: 0.458 [ms]
[OGL LOG][Preconditioner.H:346] Generate preconditioner Multigrid MaxLevels 9 MinCoarseRows 10 ZeroGuess 1 Cycle v
[OGL LOG][Proc: 0]p: init_precond: 1587.66 [ms]
[OGL LOG][StoppingCriterion.H:239] Creating stopping criterion with minIter 235 frequency 7
[OGL LOG][Proc: 0]p: generate_solver: 0.01 [ms]
[OGL LOG][Proc: 0]p: solve: 15521.1 [ms]
[OGL LOG][Proc: 0]p: copy_x_back: 1.115 [ms]
[OGL LOG][lduLduBase.H:330] 
Statistics:
	Time per iteration: 39493 [mu s]
	Time per residual norm calculation: 10441.000000 [mu s]
	Time per iteration and DOF: 4.936625 [ns]
	Retrieve results bandwidth 0.785000 [GByte/s]
[OGL LOG][Proc: 0]p: solve_multi_gpu: 17280.3 [ms]
MultigridcudaGKOCG:  Solving for p, Initial residual = 0.250579, Final residual = 9.05197e-05, No Iterations 393
[INFO] SolveP: 17315.9 [ms]
time step continuity errors : sum local = 4.1752e-09, global = -1.33507e-20, cumulative = -3.44797e-19
[INFO] ContinuityError: 5.536 [ms]
[INFO] CorrectBoundary: 0.662 [ms]
[INFO] PISOStep: 17436.2 [ms]
[INFO] TimeStep: 35274.9 [ms]
ExecutionTime = 614.73 s  ClockTime = 636 s

Time = 0.0045

Courant Number mean: 0.0579555 max: 0.485709
[INFO] MatrixAssemblyU: 59.233 [ms]
DILUPBiCGStab:  Solving for Ux, Initial residual = 0.00529509, Final residual = 0.000118753, No Iterations 5
DILUPBiCGStab:  Solving for Uy, Initial residual = 0.01274, Final residual = 0.000233833, No Iterations 5
DILUPBiCGStab:  Solving for Uz, Initial residual = 0.0438623, Final residual = 0.00311327, No Iterations 5
[INFO] MomentumPredictor: 385.352 [ms]
[INFO] MatrixAssemblyPI: 63.674 [ms]
[INFO] AdjustPhi: 8.232 [ms]
[INFO] ConstrainPressure: 0.003 [ms]
[INFO] MatrixAssemblyPII: 15.563 [ms]
[OGL LOG][Proc: 0]: global_index_init: 0.105 [ms]
[OGL LOG][Proc: 0]p_local_coeffs: call_update: 0 [ms]
[OGL LOG][Proc: 0]p_non_local_coeffs: call_update: 0 [ms]
[OGL LOG][Proc: 0]p: update_local_matrix_data: 31.393 [ms]
[OGL LOG][Proc: 0]p: update_non_local_matrix_data: 0.661 [ms]
[OGL LOG][Proc: 0]p: regenerate_distributed_matrix: 56.634 [ms]
[OGL LOG][Proc: 0]p_matrix: call_update: 68.719 [ms]
[OGL LOG][Proc: 0]p_rhs: call_update: 1.112 [ms]
[OGL LOG][Preconditioner.H:346] Generate preconditioner Multigrid MaxLevels 9 MinCoarseRows 10 ZeroGuess 1 Cycle v
[OGL LOG][Proc: 0]p: init_precond: 1596.84 [ms]
[OGL LOG][StoppingCriterion.H:239] Creating stopping criterion with minIter 235 frequency 7
[OGL LOG][Proc: 0]p: generate_solver: 0.01 [ms]
[OGL LOG][Proc: 0]p: solve: 15511.4 [ms]
[OGL LOG][Proc: 0]p: copy_x_back: 0.592 [ms]
[OGL LOG][lduLduBase.H:330] 
Statistics:
	Time per iteration: 39469 [mu s]
	Time per residual norm calculation: 12743.000000 [mu s]
	Time per iteration and DOF: 4.933625 [ns]
	Retrieve results bandwidth 1.479000 [GByte/s]
[OGL LOG][Proc: 0]p: solve_multi_gpu: 17285.7 [ms]
MultigridcudaGKOCG:  Solving for p, Initial residual = 0.257049, Final residual = 8.29266e-05, No Iterations 393
[INFO] SolveP: 17322.9 [ms]
time step continuity errors : sum local = 3.69319e-09, global = -1.78759e-20, cumulative = -3.62673e-19
[INFO] ContinuityError: 8.189 [ms]
[INFO] CorrectBoundary: 2.309 [ms]
[INFO] PISOStep: 17449 [ms]
[INFO] MatrixAssemblyPI: 62.052 [ms]
[INFO] AdjustPhi: 5.691 [ms]
[INFO] ConstrainPressure: 0.004 [ms]
[INFO] MatrixAssemblyPII: 15.28 [ms]
[OGL LOG][Proc: 0]: global_index_init: 0.048 [ms]
[OGL LOG][Proc: 0]p_local_coeffs: call_update: 0 [ms]
[OGL LOG][Proc: 0]p_non_local_coeffs: call_update: 0 [ms]
[OGL LOG][Proc: 0]p: update_local_matrix_data: 28.605 [ms]
[OGL LOG][Proc: 0]p: update_non_local_matrix_data: 0.581 [ms]
[OGL LOG][Proc: 0]p: regenerate_distributed_matrix: 43.678 [ms]
[OGL LOG][Proc: 0]p_matrix: call_update: 57.232 [ms]
[OGL LOG][Proc: 0]p_rhs: call_update: 3.256 [ms]
[OGL LOG][Preconditioner.H:346] Generate preconditioner Multigrid MaxLevels 9 MinCoarseRows 10 ZeroGuess 1 Cycle v
[OGL LOG][Proc: 0]p: init_precond: 1588.82 [ms]
[OGL LOG][StoppingCriterion.H:239] Creating stopping criterion with minIter 235 frequency 7
[OGL LOG][Proc: 0]p: generate_solver: 0.01 [ms]
[OGL LOG][Proc: 0]p: solve: 15506.1 [ms]
[OGL LOG][Proc: 0]p: copy_x_back: 0.791 [ms]
[OGL LOG][lduLduBase.H:330] 
Statistics:
	Time per iteration: 39455 [mu s]
	Time per residual norm calculation: 13965.000000 [mu s]
	Time per iteration and DOF: 4.931875 [ns]
	Retrieve results bandwidth 1.107000 [GByte/s]
[OGL LOG][Proc: 0]p: solve_multi_gpu: 17260.9 [ms]
MultigridcudaGKOCG:  Solving for p, Initial residual = 0.231341, Final residual = 7.99977e-05, No Iterations 393
[INFO] SolveP: 17293.9 [ms]
time step continuity errors : sum local = 3.55638e-09, global = -1.37141e-20, cumulative = -3.76387e-19
[INFO] ContinuityError: 7.237 [ms]
[INFO] CorrectBoundary: 0.529 [ms]
[INFO] PISOStep: 17414.8 [ms]
[INFO] TimeStep: 35318.6 [ms]
ExecutionTime = 649.88 s  ClockTime = 671 s

Time = 0.00475

Courant Number mean: 0.0590739 max: 0.486029
[INFO] MatrixAssemblyU: 59.438 [ms]
DILUPBiCGStab:  Solving for Ux, Initial residual = 0.00493209, Final residual = 0.000103748, No Iterations 5
DILUPBiCGStab:  Solving for Uy, Initial residual = 0.0117391, Final residual = 0.00020742, No Iterations 5
DILUPBiCGStab:  Solving for Uz, Initial residual = 0.0394449, Final residual = 0.0028212, No Iterations 5
[INFO] MomentumPredictor: 369.145 [ms]
[INFO] MatrixAssemblyPI: 65.088 [ms]
[INFO] AdjustPhi: 5.236 [ms]
[INFO] ConstrainPressure: 0.003 [ms]
[INFO] MatrixAssemblyPII: 15.532 [ms]
[OGL LOG][Proc: 0]: global_index_init: 0.103 [ms]
[OGL LOG][Proc: 0]p_local_coeffs: call_update: 0 [ms]
[OGL LOG][Proc: 0]p_non_local_coeffs: call_update: 0 [ms]
[OGL LOG][Proc: 0]p: update_local_matrix_data: 31.486 [ms]
[OGL LOG][Proc: 0]p: update_non_local_matrix_data: 0.584 [ms]
[OGL LOG][Proc: 0]p: regenerate_distributed_matrix: 45.727 [ms]
[OGL LOG][Proc: 0]p_matrix: call_update: 59.071 [ms]
[OGL LOG][Proc: 0]p_rhs: call_update: 3.126 [ms]
[OGL LOG][Preconditioner.H:346] Generate preconditioner Multigrid MaxLevels 9 MinCoarseRows 10 ZeroGuess 1 Cycle v
[OGL LOG][Proc: 0]p: init_precond: 1579.64 [ms]
[OGL LOG][StoppingCriterion.H:239] Creating stopping criterion with minIter 235 frequency 8
[OGL LOG][Proc: 0]p: generate_solver: 0.01 [ms]
[OGL LOG][Proc: 0]p: solve: 15495.9 [ms]
[OGL LOG][Proc: 0]p: copy_x_back: 0.734 [ms]
[OGL LOG][lduLduBase.H:330] 
Statistics:
	Time per iteration: 39429 [mu s]
	Time per residual norm calculation: 10752.000000 [mu s]
	Time per iteration and DOF: 4.928625 [ns]
	Retrieve results bandwidth 1.193000 [GByte/s]
[OGL LOG][Proc: 0]p: solve_multi_gpu: 17243.3 [ms]
MultigridcudaGKOCG:  Solving for p, Initial residual = 0.233755, Final residual = 8.08973e-05, No Iterations 393
[INFO] SolveP: 17281.1 [ms]
time step continuity errors : sum local = 3.56517e-09, global = -1.96177e-20, cumulative = -3.96004e-19
[INFO] ContinuityError: 8.456 [ms]
[INFO] CorrectBoundary: 0.89 [ms]
[INFO] PISOStep: 17401.6 [ms]
[INFO] MatrixAssemblyPI: 62.866 [ms]
[INFO] AdjustPhi: 5.062 [ms]
[INFO] ConstrainPressure: 0.003 [ms]
[INFO] MatrixAssemblyPII: 15.223 [ms]
[OGL LOG][Proc: 0]: global_index_init: 0.08 [ms]
[OGL LOG][Proc: 0]p_local_coeffs: call_update: 0 [ms]
[OGL LOG][Proc: 0]p_non_local_coeffs: call_update: 0 [ms]
[OGL LOG][Proc: 0]p: update_local_matrix_data: 29.336 [ms]
[OGL LOG][Proc: 0]p: update_non_local_matrix_data: 0.625 [ms]
[OGL LOG][Proc: 0]p: regenerate_distributed_matrix: 48.154 [ms]
[OGL LOG][Proc: 0]p_matrix: call_update: 59.559 [ms]
[OGL LOG][Proc: 0]p_rhs: call_update: 0.584 [ms]
[OGL LOG][Preconditioner.H:346] Generate preconditioner Multigrid MaxLevels 9 MinCoarseRows 10 ZeroGuess 1 Cycle v
[OGL LOG][Proc: 0]p: init_precond: 1596.77 [ms]
[OGL LOG][StoppingCriterion.H:239] Creating stopping criterion with minIter 235 frequency 7
[OGL LOG][Proc: 0]p: generate_solver: 0.011 [ms]
[OGL LOG][Proc: 0]p: solve: 15506.4 [ms]
[OGL LOG][Proc: 0]p: copy_x_back: 0.882 [ms]
[OGL LOG][lduLduBase.H:330] 
Statistics:
	Time per iteration: 39456 [mu s]
	Time per residual norm calculation: 12674.000000 [mu s]
	Time per iteration and DOF: 4.932000 [ns]
	Retrieve results bandwidth 0.993000 [GByte/s]
[OGL LOG][Proc: 0]p: solve_multi_gpu: 17269.6 [ms]
MultigridcudaGKOCG:  Solving for p, Initial residual = 0.209773, Final residual = 7.76568e-05, No Iterations 393
[INFO] SolveP: 17302.8 [ms]
time step continuity errors : sum local = 3.42324e-09, global = -1.22301e-20, cumulative = -4.08235e-19
[INFO] ContinuityError: 5.704 [ms]
[INFO] CorrectBoundary: 0.617 [ms]
[INFO] PISOStep: 17421.8 [ms]
[INFO] TimeStep: 35258.4 [ms]
ExecutionTime = 684.96 s  ClockTime = 707 s

Time = 0.005

Courant Number mean: 0.0601341 max: 0.486328
[INFO] MatrixAssemblyU: 57.018 [ms]
DILUPBiCGStab:  Solving for Ux, Initial residual = 0.00461886, Final residual = 9.41292e-05, No Iterations 5
DILUPBiCGStab:  Solving for Uy, Initial residual = 0.010968, Final residual = 0.000172081, No Iterations 5
DILUPBiCGStab:  Solving for Uz, Initial residual = 0.0358609, Final residual = 0.00253395, No Iterations 5
[INFO] MomentumPredictor: 375.314 [ms]
[INFO] MatrixAssemblyPI: 63.984 [ms]
[INFO] AdjustPhi: 6.025 [ms]
[INFO] ConstrainPressure: 0.003 [ms]
[INFO] MatrixAssemblyPII: 15.681 [ms]
[OGL LOG][Proc: 0]: global_index_init: 0.109 [ms]
[OGL LOG][Proc: 0]p_local_coeffs: call_update: 0 [ms]
[OGL LOG][Proc: 0]p_non_local_coeffs: call_update: 0 [ms]
[OGL LOG][Proc: 0]p: update_local_matrix_data: 30.591 [ms]
[OGL LOG][Proc: 0]p: update_non_local_matrix_data: 0.647 [ms]
[OGL LOG][Proc: 0]p: regenerate_distributed_matrix: 46.903 [ms]
[OGL LOG][Proc: 0]p_matrix: call_update: 60.625 [ms]
[OGL LOG][Proc: 0]p_rhs: call_update: 2.218 [ms]
[OGL LOG][Preconditioner.H:346] Generate preconditioner Multigrid MaxLevels 9 MinCoarseRows 10 ZeroGuess 1 Cycle v
[OGL LOG][Proc: 0]p: init_precond: 1593.64 [ms]
[OGL LOG][StoppingCriterion.H:239] Creating stopping criterion with minIter 235 frequency 7
[OGL LOG][Proc: 0]p: generate_solver: 0.01 [ms]
[OGL LOG][Proc: 0]p: solve: 15225.4 [ms]
[OGL LOG][Proc: 0]p: copy_x_back: 0.551 [ms]
[OGL LOG][lduLduBase.H:330] 
Statistics:
	Time per iteration: 39444 [mu s]
	Time per residual norm calculation: 13315.000000 [mu s]
	Time per iteration and DOF: 4.930500 [ns]
	Retrieve results bandwidth 1.589000 [GByte/s]
[OGL LOG][Proc: 0]p: solve_multi_gpu: 16982.5 [ms]
MultigridcudaGKOCG:  Solving for p, Initial residual = 0.215887, Final residual = 8.79354e-05, No Iterations 386
[INFO] SolveP: 17017.8 [ms]
time step continuity errors : sum local = 3.74864e-09, global = -2.16563e-20, cumulative = -4.29891e-19
[INFO] ContinuityError: 8.013 [ms]
[INFO] CorrectBoundary: 0.753 [ms]
[INFO] PISOStep: 17139 [ms]
[INFO] MatrixAssemblyPI: 63.303 [ms]
[INFO] AdjustPhi: 3.207 [ms]
[INFO] ConstrainPressure: 0.003 [ms]
[INFO] MatrixAssemblyPII: 16.089 [ms]
[OGL LOG][Proc: 0]: global_index_init: 0.072 [ms]
[OGL LOG][Proc: 0]p_local_coeffs: call_update: 0 [ms]
[OGL LOG][Proc: 0]p_non_local_coeffs: call_update: 0 [ms]
[OGL LOG][Proc: 0]p: update_local_matrix_data: 29.817 [ms]
[OGL LOG][Proc: 0]p: update_non_local_matrix_data: 0.615 [ms]
[OGL LOG][Proc: 0]p: regenerate_distributed_matrix: 48.354 [ms]
[OGL LOG][Proc: 0]p_matrix: call_update: 59.176 [ms]
[OGL LOG][Proc: 0]p_rhs: call_update: 0.415 [ms]
[OGL LOG][Preconditioner.H:346] Generate preconditioner Multigrid MaxLevels 9 MinCoarseRows 10 ZeroGuess 1 Cycle v
[OGL LOG][Proc: 0]p: init_precond: 1621.51 [ms]
[OGL LOG][StoppingCriterion.H:239] Creating stopping criterion with minIter 231 frequency 8
[OGL LOG][Proc: 0]p: generate_solver: 0.01 [ms]
[OGL LOG][Proc: 0]p: solve: 15136.3 [ms]
[OGL LOG][Proc: 0]p: copy_x_back: 0.501 [ms]
[OGL LOG][lduLduBase.H:330] 
Statistics:
	Time per iteration: 39314 [mu s]
	Time per residual norm calculation: 13551.000000 [mu s]
	Time per iteration and DOF: 4.914250 [ns]
	Retrieve results bandwidth 1.748000 [GByte/s]
[OGL LOG][Proc: 0]p: solve_multi_gpu: 16937.8 [ms]
MultigridcudaGKOCG:  Solving for p, Initial residual = 0.1942, Final residual = 9.66271e-05, No Iterations 385
[INFO] SolveP: 16972.4 [ms]
time step continuity errors : sum local = 4.11415e-09, global = -1.76802e-20, cumulative = -4.47571e-19
[INFO] ContinuityError: 6.792 [ms]
[INFO] CorrectBoundary: 2.888 [ms]
[INFO] PISOStep: 17086.1 [ms]
[INFO] TimeStep: 34669.9 [ms]
ExecutionTime = 719.37 s  ClockTime = 741 s

End

Finalising parallel run
