/*---------------------------------------------------------------------------*\
| =========                 |                                                 |
| \\      /  F ield         | OpenFOAM: The Open Source CFD Toolbox           |
|  \\    /   O peration     | Version:  2306                                  |
|   \\  /    A nd           | Website:  www.openfoam.com                      |
|    \\/     M anipulation  |                                                 |
\*---------------------------------------------------------------------------*/
Build  : c423ebec-20231012 OPENFOAM=2306 version=v2306
Arch   : "LSB;label=32;scalar=64"
Exec   : icoFoam -parallel -case /hkfs/work/workspace/scratch/eq4036-l3d/workspace/ce03fb72a7c9cd728cc6bcdc44cbe134/case
Date   : Dec 30 2023
Time   : 09:30:16
Host   : hkn0702.localdomain
PID    : 2862166
I/O    : uncollated
Case   : /hkfs/work/workspace/scratch/eq4036-l3d/workspace/ce03fb72a7c9cd728cc6bcdc44cbe134/case
nProcs : 4
Hosts  :
(
    (hkn0702.localdomain 4)
)
Pstream initialized with:
    floatTransfer      : false
    nProcsSimpleSum    : 0
    nonBlockingExchange: 0 (tuning: 0)
    exchange algorithm : -1
    commsType          : nonBlocking
    polling iterations : 0
trapFpe: Floating point exception trapping enabled (FOAM_SIGFPE).
fileModificationChecking : Monitoring run-time modified files using timeStampMaster (fileModificationSkew 5, maxFileModificationPolls 20)
allowSystemOperations : Allowing user-supplied system call operations

// * * * * * * * * * * * * * * * * * * * * * * * * * * * * * * * * * * * * * //
Create time

--> FOAM Warning : 
    From void* Foam::dlLibraryTable::openLibrary(const Foam::fileName&, bool)
    in file db/dynamicLibrary/dlLibraryTable/dlLibraryTable.C at line 188
    Could not load "libpetscFoam.so"
libpetscFoam.so: cannot open shared object file: No such file or directory
Create mesh for time = 0


PISO: Operating solver in PISO mode

Reading transportProperties

Reading field p

Reading field U

Reading/calculating face flux field phi


Starting time loop

Time = 0.0005

Courant Number mean: 8.62851e-18 max: 8.67362e-15
[INFO] MatrixAssemblyU: 45.26 [ms]
DILUPBiCGStab:  Solving for Ux, Initial residual = 1, Final residual = 0.00219478, No Iterations 5
DILUPBiCGStab:  Solving for Uy:  solution singularity
DILUPBiCGStab:  Solving for Uz:  solution singularity
[INFO] MomentumPredictor: 166.519 [ms]
[INFO] MatrixAssemblyPI: 38.678 [ms]
[INFO] AdjustPhi: 3.267 [ms]
[INFO] ConstrainPressure: 0.005 [ms]
[INFO] MatrixAssemblyPII: 11.159 [ms]
[OGL LOG][lduLduBase.H:119] Initialising OGL
	OGL commit:  a2fc0ff+
	Branch: feat/on_device_permute 
	Build type: Release
	Ginkgo version: 1.7.0 ( develop)
	Ginkgo commit: sparse-communicator
	MPI is GPU aware: 1
	Forces host buffer based communication: 0
	CPU ranks per GPU: 1
	Matrix format: Ell
	End OGL_INFO
[OGL LOG][Proc: 0]: global_index_init: 0.05 [ms]
[OGL LOG][Proc: 0]p_local_cols: call_init: 0.748 [ms]
[OGL LOG][Proc: 0]p_local_rows: call_init: 0.741 [ms]
[OGL LOG][Proc: 0]p_local_ldu_map: call_init: 0.542 [ms]
[OGL LOG][Proc: 0]p_local_coeffs: call_init: 4.022 [ms]
[OGL LOG][Proc: 0]p_non_local_cols: call_init: 0.216 [ms]
[OGL LOG][Proc: 0]p_non_local_rows: call_init: 0.552 [ms]
[OGL LOG][Proc: 0]p_non_local_ldu_map: call_init: 0.429 [ms]
[OGL LOG][Proc: 0]p_non_local_coeffs: call_init: 0.555 [ms]
[OGL LOG][Proc: 0]p: init_local_sparsity_pattern: 69.208 [ms]
[OGL LOG][Proc: 0]p: init_non_local_sparsity_pattern: 0.726 [ms]
[OGL LOG][Proc: 0]p: update_local_matrix_data: 56.396 [ms]
[OGL LOG][Proc: 0]p: update_non_local_matrix_data: 0.094 [ms]
[OGL LOG][Proc: 0]device_partition: call_init: 0.709 [ms]
[OGL LOG][Proc: 0]p_matrix: call_init: 20.999 [ms]
[OGL LOG][Proc: 0]p_rhs: call_init: 0.984 [ms]
[OGL LOG][Proc: 0]p_solution: call_init: 1.771 [ms]
[OGL LOG][Preconditioner.H:346] Generate preconditioner Multigrid MaxLevels 9 MinCoarseRows 10 ZeroGuess 1 Cycle v
[OGL LOG][Proc: 0]p: init_precond: 139.361 [ms]
[OGL LOG][StoppingCriterion.H:237] Creating stopping criterion with minIter 0 frequency 1
[OGL LOG][Proc: 0]p: generate_solver: 0.001 [ms]
[OGL LOG][Proc: 0]p: solve: 248.808 [ms]
[OGL LOG][Proc: 0]p: copy_x_back: 0.888 [ms]
[OGL LOG][lduLduBase.H:330] 
Statistics:
	Time per iteration: 2325 [mu s]
	Time per residual norm calculation: 113.000000 [mu s]
	Time per iteration and DOF: 2.325000 [ns]
	Retrieve results bandwidth 2.252000 [GByte/s]
[OGL LOG][Proc: 0]p: solve_multi_gpu: 414.011 [ms]
MultigridcudaGKOCG:  Solving for p, Initial residual = 1, Final residual = 7.61269e-05, No Iterations 107
[INFO] SolveP: 1266.88 [ms]
time step continuity errors : sum local = 1.64531e-08, global = -1.75261e-21, cumulative = -1.75261e-21
[INFO] ContinuityError: 4.931 [ms]
[INFO] CorrectBoundary: 0.137 [ms]
[INFO] PISOStep: 1344.08 [ms]
[INFO] MatrixAssemblyPI: 37.647 [ms]
[INFO] AdjustPhi: 1.816 [ms]
[INFO] ConstrainPressure: 0.002 [ms]
[INFO] MatrixAssemblyPII: 12.572 [ms]
[OGL LOG][Proc: 0]: global_index_init: 0.011 [ms]
[OGL LOG][Proc: 0]p_local_coeffs: call_update: 0.001 [ms]
[OGL LOG][Proc: 0]p_non_local_coeffs: call_update: 0 [ms]
[OGL LOG][Proc: 0]p: update_local_matrix_data: 7.674 [ms]
[OGL LOG][Proc: 0]p: update_non_local_matrix_data: 0.081 [ms]
[OGL LOG][Proc: 0]p: regenerate_distributed_matrix: 25.049 [ms]
[OGL LOG][Proc: 0]p_matrix: call_update: 25.654 [ms]
[OGL LOG][Proc: 0]p_rhs: call_update: 1.944 [ms]
[OGL LOG][Preconditioner.H:346] Generate preconditioner Multigrid MaxLevels 9 MinCoarseRows 10 ZeroGuess 1 Cycle v
[OGL LOG][Proc: 0]p: init_precond: 69.179 [ms]
[OGL LOG][StoppingCriterion.H:237] Creating stopping criterion with minIter 64 frequency 1
[OGL LOG][Proc: 0]p: generate_solver: 0 [ms]
[OGL LOG][Proc: 0]p: solve: 155.907 [ms]
[OGL LOG][Proc: 0]p: copy_x_back: 0.575 [ms]
[OGL LOG][lduLduBase.H:330] 
Statistics:
	Time per iteration: 1499 [mu s]
	Time per residual norm calculation: 87.000000 [mu s]
	Time per iteration and DOF: 1.499000 [ns]
	Retrieve results bandwidth 3.478000 [GByte/s]
[OGL LOG][Proc: 0]p: solve_multi_gpu: 260.078 [ms]
MultigridcudaGKOCG:  Solving for p, Initial residual = 0.729654, Final residual = 8.91674e-05, No Iterations 104
[INFO] SolveP: 269.361 [ms]
time step continuity errors : sum local = 2.53098e-08, global = -3.01812e-21, cumulative = -4.77074e-21
[INFO] ContinuityError: 6.358 [ms]
[INFO] CorrectBoundary: 0.101 [ms]
[INFO] PISOStep: 341.719 [ms]
[INFO] TimeStep: 1903.87 [ms]
ExecutionTime = 1.94 s  ClockTime = 2 s

Time = 0.001

Courant Number mean: 0.0215477 max: 0.377117
[INFO] MatrixAssemblyU: 34.38 [ms]
DILUPBiCGStab:  Solving for Ux, Initial residual = 0.150397, Final residual = 0.00095493, No Iterations 5
DILUPBiCGStab:  Solving for Uy, Initial residual = 0.368071, Final residual = 0.00158137, No Iterations 5
DILUPBiCGStab:  Solving for Uz, Initial residual = 0.988622, Final residual = 0.00437365, No Iterations 5
[INFO] MomentumPredictor: 291.835 [ms]
[INFO] MatrixAssemblyPI: 36.58 [ms]
[INFO] AdjustPhi: 1.78 [ms]
[INFO] ConstrainPressure: 0.002 [ms]
[INFO] MatrixAssemblyPII: 11.404 [ms]
[OGL LOG][Proc: 0]: global_index_init: 0.007 [ms]
[OGL LOG][Proc: 0]p_local_coeffs: call_update: 0 [ms]
[OGL LOG][Proc: 0]p_non_local_coeffs: call_update: 0 [ms]
[OGL LOG][Proc: 0]p: update_local_matrix_data: 6.427 [ms]
[OGL LOG][Proc: 0]p: update_non_local_matrix_data: 0.056 [ms]
[OGL LOG][Proc: 0]p: regenerate_distributed_matrix: 25.752 [ms]
[OGL LOG][Proc: 0]p_matrix: call_update: 26.41 [ms]
[OGL LOG][Proc: 0]p_rhs: call_update: 0.234 [ms]
[OGL LOG][Preconditioner.H:346] Generate preconditioner Multigrid MaxLevels 9 MinCoarseRows 10 ZeroGuess 1 Cycle v
[OGL LOG][Proc: 0]p: init_precond: 69.188 [ms]
[OGL LOG][StoppingCriterion.H:237] Creating stopping criterion with minIter 62 frequency 1
[OGL LOG][Proc: 0]p: generate_solver: 0 [ms]
[OGL LOG][Proc: 0]p: solve: 156.186 [ms]
[OGL LOG][Proc: 0]p: copy_x_back: 1.102 [ms]
[OGL LOG][lduLduBase.H:330] 
Statistics:
	Time per iteration: 1501 [mu s]
	Time per residual norm calculation: 89.000000 [mu s]
	Time per iteration and DOF: 1.501000 [ns]
	Retrieve results bandwidth 1.814000 [GByte/s]
[OGL LOG][Proc: 0]p: solve_multi_gpu: 279.047 [ms]
MultigridcudaGKOCG:  Solving for p, Initial residual = 0.687215, Final residual = 8.29987e-05, No Iterations 104
[INFO] SolveP: 287.6 [ms]
time step continuity errors : sum local = 2.6554e-08, global = -2.67888e-21, cumulative = -7.44961e-21
[INFO] ContinuityError: 5.048 [ms]
[INFO] CorrectBoundary: 0.126 [ms]
[INFO] PISOStep: 358.306 [ms]
[INFO] MatrixAssemblyPI: 36.962 [ms]
[INFO] AdjustPhi: 1.752 [ms]
[INFO] ConstrainPressure: 0.002 [ms]
[INFO] MatrixAssemblyPII: 11.789 [ms]
[OGL LOG][Proc: 0]: global_index_init: 0.01 [ms]
[OGL LOG][Proc: 0]p_local_coeffs: call_update: 0 [ms]
[OGL LOG][Proc: 0]p_non_local_coeffs: call_update: 0 [ms]
[OGL LOG][Proc: 0]p: update_local_matrix_data: 10.625 [ms]
[OGL LOG][Proc: 0]p: update_non_local_matrix_data: 0.088 [ms]
[OGL LOG][Proc: 0]p: regenerate_distributed_matrix: 29.277 [ms]
[OGL LOG][Proc: 0]p_matrix: call_update: 32.403 [ms]
[OGL LOG][Proc: 0]p_rhs: call_update: 0.212 [ms]
[OGL LOG][Preconditioner.H:346] Generate preconditioner Multigrid MaxLevels 9 MinCoarseRows 10 ZeroGuess 1 Cycle v
[OGL LOG][Proc: 0]p: init_precond: 189.182 [ms]
[OGL LOG][StoppingCriterion.H:237] Creating stopping criterion with minIter 62 frequency 1
[OGL LOG][Proc: 0]p: generate_solver: 0 [ms]
[OGL LOG][Proc: 0]p: solve: 171.351 [ms]
[OGL LOG][Proc: 0]p: copy_x_back: 0.631 [ms]
[OGL LOG][lduLduBase.H:330] 
Statistics:
	Time per iteration: 1663 [mu s]
	Time per residual norm calculation: 85.000000 [mu s]
	Time per iteration and DOF: 1.663000 [ns]
	Retrieve results bandwidth 3.169000 [GByte/s]
[OGL LOG][Proc: 0]p: solve_multi_gpu: 416.83 [ms]
MultigridcudaGKOCG:  Solving for p, Initial residual = 0.616517, Final residual = 9.3447e-05, No Iterations 103
[INFO] SolveP: 429.089 [ms]
time step continuity errors : sum local = 3.03471e-08, global = -1.97815e-21, cumulative = -9.42777e-21
[INFO] ContinuityError: 13.599 [ms]
[INFO] CorrectBoundary: 0.098 [ms]
[INFO] PISOStep: 506.209 [ms]
[INFO] TimeStep: 1195.75 [ms]
ExecutionTime = 2.97 s  ClockTime = 3 s

Time = 0.0015

Courant Number mean: 0.0325126 max: 0.441263
[INFO] MatrixAssemblyU: 37.174 [ms]
DILUPBiCGStab:  Solving for Ux, Initial residual = 0.0530758, Final residual = 0.000278897, No Iterations 5
DILUPBiCGStab:  Solving for Uy, Initial residual = 0.124547, Final residual = 0.000364518, No Iterations 5
DILUPBiCGStab:  Solving for Uz, Initial residual = 0.577006, Final residual = 0.00244547, No Iterations 5
[INFO] MomentumPredictor: 294.957 [ms]
[INFO] MatrixAssemblyPI: 36.28 [ms]
[INFO] AdjustPhi: 2.745 [ms]
[INFO] ConstrainPressure: 0.002 [ms]
[INFO] MatrixAssemblyPII: 11.473 [ms]
[OGL LOG][Proc: 0]: global_index_init: 0.014 [ms]
[OGL LOG][Proc: 0]p_local_coeffs: call_update: 0 [ms]
[OGL LOG][Proc: 0]p_non_local_coeffs: call_update: 0 [ms]
[OGL LOG][Proc: 0]p: update_local_matrix_data: 6.322 [ms]
[OGL LOG][Proc: 0]p: update_non_local_matrix_data: 0.06 [ms]
[OGL LOG][Proc: 0]p: regenerate_distributed_matrix: 25.123 [ms]
[OGL LOG][Proc: 0]p_matrix: call_update: 25.58 [ms]
[OGL LOG][Proc: 0]p_rhs: call_update: 0.308 [ms]
[OGL LOG][Preconditioner.H:346] Generate preconditioner Multigrid MaxLevels 9 MinCoarseRows 10 ZeroGuess 1 Cycle v
[OGL LOG][Proc: 0]p: init_precond: 69.428 [ms]
[OGL LOG][StoppingCriterion.H:237] Creating stopping criterion with minIter 61 frequency 1
[OGL LOG][Proc: 0]p: generate_solver: 0 [ms]
[OGL LOG][Proc: 0]p: solve: 141.492 [ms]
[OGL LOG][Proc: 0]p: copy_x_back: 0.636 [ms]
[OGL LOG][lduLduBase.H:330] 
Statistics:
	Time per iteration: 1521 [mu s]
	Time per residual norm calculation: 89.000000 [mu s]
	Time per iteration and DOF: 1.521000 [ns]
	Retrieve results bandwidth 3.144000 [GByte/s]
[OGL LOG][Proc: 0]p: solve_multi_gpu: 244.484 [ms]
MultigridcudaGKOCG:  Solving for p, Initial residual = 0.630289, Final residual = 9.17045e-05, No Iterations 93
[INFO] SolveP: 252.451 [ms]
time step continuity errors : sum local = 2.08776e-08, global = -1.85206e-21, cumulative = -1.12798e-20
[INFO] ContinuityError: 4.384 [ms]
[INFO] CorrectBoundary: 0.103 [ms]
[INFO] PISOStep: 321.83 [ms]
[INFO] MatrixAssemblyPI: 40.258 [ms]
[INFO] AdjustPhi: 2.746 [ms]
[INFO] ConstrainPressure: 0.002 [ms]
[INFO] MatrixAssemblyPII: 12.652 [ms]
[OGL LOG][Proc: 0]: global_index_init: 0.012 [ms]
[OGL LOG][Proc: 0]p_local_coeffs: call_update: 0 [ms]
[OGL LOG][Proc: 0]p_non_local_coeffs: call_update: 0 [ms]
[OGL LOG][Proc: 0]p: update_local_matrix_data: 6.914 [ms]
[OGL LOG][Proc: 0]p: update_non_local_matrix_data: 0.088 [ms]
[OGL LOG][Proc: 0]p: regenerate_distributed_matrix: 24.676 [ms]
[OGL LOG][Proc: 0]p_matrix: call_update: 25.118 [ms]
[OGL LOG][Proc: 0]p_rhs: call_update: 0.237 [ms]
[OGL LOG][Preconditioner.H:346] Generate preconditioner Multigrid MaxLevels 9 MinCoarseRows 10 ZeroGuess 1 Cycle v
[OGL LOG][Proc: 0]p: init_precond: 68.358 [ms]
[OGL LOG][StoppingCriterion.H:237] Creating stopping criterion with minIter 55 frequency 1
[OGL LOG][Proc: 0]p: generate_solver: 0 [ms]
[OGL LOG][Proc: 0]p: solve: 143.221 [ms]
[OGL LOG][Proc: 0]p: copy_x_back: 0.831 [ms]
[OGL LOG][lduLduBase.H:330] 
Statistics:
	Time per iteration: 1523 [mu s]
	Time per residual norm calculation: 86.000000 [mu s]
	Time per iteration and DOF: 1.523000 [ns]
	Retrieve results bandwidth 2.406000 [GByte/s]
[OGL LOG][Proc: 0]p: solve_multi_gpu: 244.476 [ms]
MultigridcudaGKOCG:  Solving for p, Initial residual = 0.578212, Final residual = 8.04964e-05, No Iterations 94
[INFO] SolveP: 253.079 [ms]
time step continuity errors : sum local = 1.78414e-08, global = -1.69624e-21, cumulative = -1.29761e-20
[INFO] ContinuityError: 4.729 [ms]
[INFO] CorrectBoundary: 0.841 [ms]
[INFO] PISOStep: 329.456 [ms]
[INFO] TimeStep: 988.148 [ms]
ExecutionTime = 3.96 s  ClockTime = 4 s

Time = 0.002

Courant Number mean: 0.0389156 max: 0.452962
[INFO] MatrixAssemblyU: 32.224 [ms]
DILUPBiCGStab:  Solving for Ux, Initial residual = 0.0318709, Final residual = 0.000142393, No Iterations 5
DILUPBiCGStab:  Solving for Uy, Initial residual = 0.0813181, Final residual = 0.00024015, No Iterations 5
DILUPBiCGStab:  Solving for Uz, Initial residual = 0.274215, Final residual = 0.00089058, No Iterations 5
[INFO] MomentumPredictor: 291.631 [ms]
[INFO] MatrixAssemblyPI: 37.386 [ms]
[INFO] AdjustPhi: 1.816 [ms]
[INFO] ConstrainPressure: 0.002 [ms]
[INFO] MatrixAssemblyPII: 11.185 [ms]
[OGL LOG][Proc: 0]: global_index_init: 0.008 [ms]
[OGL LOG][Proc: 0]p_local_coeffs: call_update: 0 [ms]
[OGL LOG][Proc: 0]p_non_local_coeffs: call_update: 0 [ms]
[OGL LOG][Proc: 0]p: update_local_matrix_data: 6.49 [ms]
[OGL LOG][Proc: 0]p: update_non_local_matrix_data: 0.058 [ms]
[OGL LOG][Proc: 0]p: regenerate_distributed_matrix: 26.03 [ms]
[OGL LOG][Proc: 0]p_matrix: call_update: 26.446 [ms]
[OGL LOG][Proc: 0]p_rhs: call_update: 0.319 [ms]
[OGL LOG][Preconditioner.H:346] Generate preconditioner Multigrid MaxLevels 9 MinCoarseRows 10 ZeroGuess 1 Cycle v
[OGL LOG][Proc: 0]p: init_precond: 70.175 [ms]
[OGL LOG][StoppingCriterion.H:237] Creating stopping criterion with minIter 56 frequency 1
[OGL LOG][Proc: 0]p: generate_solver: 0 [ms]
[OGL LOG][Proc: 0]p: solve: 136.724 [ms]
[OGL LOG][Proc: 0]p: copy_x_back: 0.602 [ms]
[OGL LOG][lduLduBase.H:330] 
Statistics:
	Time per iteration: 1502 [mu s]
	Time per residual norm calculation: 87.000000 [mu s]
	Time per iteration and DOF: 1.502000 [ns]
	Retrieve results bandwidth 3.322000 [GByte/s]
[OGL LOG][Proc: 0]p: solve_multi_gpu: 240.614 [ms]
MultigridcudaGKOCG:  Solving for p, Initial residual = 0.409682, Final residual = 9.7523e-05, No Iterations 91
[INFO] SolveP: 248.719 [ms]
time step continuity errors : sum local = 1.90352e-08, global = -3.88498e-21, cumulative = -1.6861e-20
[INFO] ContinuityError: 4.982 [ms]
[INFO] CorrectBoundary: 0.096 [ms]
[INFO] PISOStep: 318.182 [ms]
[INFO] MatrixAssemblyPI: 34.809 [ms]
[INFO] AdjustPhi: 1.703 [ms]
[INFO] ConstrainPressure: 0.002 [ms]
[INFO] MatrixAssemblyPII: 11.294 [ms]
[OGL LOG][Proc: 0]: global_index_init: 0.025 [ms]
[OGL LOG][Proc: 0]p_local_coeffs: call_update: 0 [ms]
[OGL LOG][Proc: 0]p_non_local_coeffs: call_update: 0 [ms]
[OGL LOG][Proc: 0]p: update_local_matrix_data: 6.765 [ms]
[OGL LOG][Proc: 0]p: update_non_local_matrix_data: 0.056 [ms]
[OGL LOG][Proc: 0]p: regenerate_distributed_matrix: 25.221 [ms]
[OGL LOG][Proc: 0]p_matrix: call_update: 25.73 [ms]
[OGL LOG][Proc: 0]p_rhs: call_update: 0.216 [ms]
[OGL LOG][Preconditioner.H:346] Generate preconditioner Multigrid MaxLevels 9 MinCoarseRows 10 ZeroGuess 1 Cycle v
[OGL LOG][Proc: 0]p: init_precond: 66.8 [ms]
[OGL LOG][StoppingCriterion.H:237] Creating stopping criterion with minIter 54 frequency 1
[OGL LOG][Proc: 0]p: generate_solver: 0.001 [ms]
[OGL LOG][Proc: 0]p: solve: 137.401 [ms]
[OGL LOG][Proc: 0]p: copy_x_back: 0.521 [ms]
[OGL LOG][lduLduBase.H:330] 
Statistics:
	Time per iteration: 1526 [mu s]
	Time per residual norm calculation: 88.000000 [mu s]
	Time per iteration and DOF: 1.526000 [ns]
	Retrieve results bandwidth 3.838000 [GByte/s]
[OGL LOG][Proc: 0]p: solve_multi_gpu: 236.943 [ms]
MultigridcudaGKOCG:  Solving for p, Initial residual = 0.348239, Final residual = 9.74111e-05, No Iterations 90
[INFO] SolveP: 245.577 [ms]
time step continuity errors : sum local = 1.91933e-08, global = -1.0834e-21, cumulative = -1.79444e-20
[INFO] ContinuityError: 6.492 [ms]
[INFO] CorrectBoundary: 0.79 [ms]
[INFO] PISOStep: 314.358 [ms]
[INFO] TimeStep: 961.823 [ms]
ExecutionTime = 4.92 s  ClockTime = 5 s

Time = 0.0025

Courant Number mean: 0.0439692 max: 0.459636
[INFO] MatrixAssemblyU: 31.759 [ms]
DILUPBiCGStab:  Solving for Ux, Initial residual = 0.0234817, Final residual = 8.32936e-05, No Iterations 5
DILUPBiCGStab:  Solving for Uy, Initial residual = 0.0514564, Final residual = 0.000139104, No Iterations 5
DILUPBiCGStab:  Solving for Uz, Initial residual = 0.0981088, Final residual = 0.000366005, No Iterations 5
[INFO] MomentumPredictor: 300.392 [ms]
[INFO] MatrixAssemblyPI: 39.463 [ms]
[INFO] AdjustPhi: 1.801 [ms]
[INFO] ConstrainPressure: 0.002 [ms]
[INFO] MatrixAssemblyPII: 11.662 [ms]
[OGL LOG][Proc: 0]: global_index_init: 0.013 [ms]
[OGL LOG][Proc: 0]p_local_coeffs: call_update: 0 [ms]
[OGL LOG][Proc: 0]p_non_local_coeffs: call_update: 0 [ms]
[OGL LOG][Proc: 0]p: update_local_matrix_data: 6.871 [ms]
[OGL LOG][Proc: 0]p: update_non_local_matrix_data: 0.085 [ms]
[OGL LOG][Proc: 0]p: regenerate_distributed_matrix: 25.389 [ms]
[OGL LOG][Proc: 0]p_matrix: call_update: 25.836 [ms]
[OGL LOG][Proc: 0]p_rhs: call_update: 0.221 [ms]
[OGL LOG][Preconditioner.H:346] Generate preconditioner Multigrid MaxLevels 9 MinCoarseRows 10 ZeroGuess 1 Cycle v
[OGL LOG][Proc: 0]p: init_precond: 68.617 [ms]
[OGL LOG][StoppingCriterion.H:237] Creating stopping criterion with minIter 54 frequency 1
[OGL LOG][Proc: 0]p: generate_solver: 0 [ms]
[OGL LOG][Proc: 0]p: solve: 144.475 [ms]
[OGL LOG][Proc: 0]p: copy_x_back: 0.888 [ms]
[OGL LOG][lduLduBase.H:330] 
Statistics:
	Time per iteration: 1520 [mu s]
	Time per residual norm calculation: 87.000000 [mu s]
	Time per iteration and DOF: 1.520000 [ns]
	Retrieve results bandwidth 2.252000 [GByte/s]
[OGL LOG][Proc: 0]p: solve_multi_gpu: 246.646 [ms]
MultigridcudaGKOCG:  Solving for p, Initial residual = 0.312893, Final residual = 8.98434e-05, No Iterations 95
[INFO] SolveP: 255.197 [ms]
time step continuity errors : sum local = 1.44959e-08, global = 8.20589e-22, cumulative = -1.71239e-20
[INFO] ContinuityError: 4.385 [ms]
[INFO] CorrectBoundary: 0.097 [ms]
[INFO] PISOStep: 326.606 [ms]
[INFO] MatrixAssemblyPI: 34.706 [ms]
[INFO] AdjustPhi: 1.699 [ms]
[INFO] ConstrainPressure: 0.002 [ms]
[INFO] MatrixAssemblyPII: 11.21 [ms]
[OGL LOG][Proc: 0]: global_index_init: 0.006 [ms]
[OGL LOG][Proc: 0]p_local_coeffs: call_update: 0 [ms]
[OGL LOG][Proc: 0]p_non_local_coeffs: call_update: 0 [ms]
[OGL LOG][Proc: 0]p: update_local_matrix_data: 6.416 [ms]
[OGL LOG][Proc: 0]p: update_non_local_matrix_data: 0.063 [ms]
[OGL LOG][Proc: 0]p: regenerate_distributed_matrix: 25.319 [ms]
[OGL LOG][Proc: 0]p_matrix: call_update: 25.731 [ms]
[OGL LOG][Proc: 0]p_rhs: call_update: 0.52 [ms]
[OGL LOG][Preconditioner.H:346] Generate preconditioner Multigrid MaxLevels 9 MinCoarseRows 10 ZeroGuess 1 Cycle v
[OGL LOG][Proc: 0]p: init_precond: 67.513 [ms]
[OGL LOG][StoppingCriterion.H:237] Creating stopping criterion with minIter 57 frequency 1
[OGL LOG][Proc: 0]p: generate_solver: 0 [ms]
[OGL LOG][Proc: 0]p: solve: 143.452 [ms]
[OGL LOG][Proc: 0]p: copy_x_back: 0.654 [ms]
[OGL LOG][lduLduBase.H:330] 
Statistics:
	Time per iteration: 1526 [mu s]
	Time per residual norm calculation: 85.000000 [mu s]
	Time per iteration and DOF: 1.526000 [ns]
	Retrieve results bandwidth 3.058000 [GByte/s]
[OGL LOG][Proc: 0]p: solve_multi_gpu: 244.469 [ms]
MultigridcudaGKOCG:  Solving for p, Initial residual = 0.267927, Final residual = 9.46372e-05, No Iterations 94
[INFO] SolveP: 252.516 [ms]
time step continuity errors : sum local = 1.51571e-08, global = -5.2435e-21, cumulative = -2.23674e-20
[INFO] ContinuityError: 4.377 [ms]
[INFO] CorrectBoundary: 0.105 [ms]
[INFO] PISOStep: 320.344 [ms]
[INFO] TimeStep: 985.69 [ms]
ExecutionTime = 5.89 s  ClockTime = 6 s

Time = 0.003

Courant Number mean: 0.0480091 max: 0.463876
[INFO] MatrixAssemblyU: 35.471 [ms]
DILUPBiCGStab:  Solving for Ux, Initial residual = 0.0178828, Final residual = 6.19635e-05, No Iterations 5
DILUPBiCGStab:  Solving for Uy, Initial residual = 0.0400903, Final residual = 7.40098e-05, No Iterations 5
DILUPBiCGStab:  Solving for Uz, Initial residual = 0.0851524, Final residual = 0.000279823, No Iterations 5
[INFO] MomentumPredictor: 290.401 [ms]
[INFO] MatrixAssemblyPI: 36.347 [ms]
[INFO] AdjustPhi: 1.714 [ms]
[INFO] ConstrainPressure: 0.003 [ms]
[INFO] MatrixAssemblyPII: 11.19 [ms]
[OGL LOG][Proc: 0]: global_index_init: 0.01 [ms]
[OGL LOG][Proc: 0]p_local_coeffs: call_update: 0 [ms]
[OGL LOG][Proc: 0]p_non_local_coeffs: call_update: 0 [ms]
[OGL LOG][Proc: 0]p: update_local_matrix_data: 6.783 [ms]
[OGL LOG][Proc: 0]p: update_non_local_matrix_data: 0.059 [ms]
[OGL LOG][Proc: 0]p: regenerate_distributed_matrix: 24.255 [ms]
[OGL LOG][Proc: 0]p_matrix: call_update: 24.646 [ms]
[OGL LOG][Proc: 0]p_rhs: call_update: 0.716 [ms]
[OGL LOG][Preconditioner.H:346] Generate preconditioner Multigrid MaxLevels 9 MinCoarseRows 10 ZeroGuess 1 Cycle v
[OGL LOG][Proc: 0]p: init_precond: 68.307 [ms]
[OGL LOG][StoppingCriterion.H:237] Creating stopping criterion with minIter 56 frequency 1
[OGL LOG][Proc: 0]p: generate_solver: 0 [ms]
[OGL LOG][Proc: 0]p: solve: 134.368 [ms]
[OGL LOG][Proc: 0]p: copy_x_back: 0.595 [ms]
[OGL LOG][lduLduBase.H:330] 
Statistics:
	Time per iteration: 1526 [mu s]
	Time per residual norm calculation: 86.000000 [mu s]
	Time per iteration and DOF: 1.526000 [ns]
	Retrieve results bandwidth 3.361000 [GByte/s]
[OGL LOG][Proc: 0]p: solve_multi_gpu: 235.166 [ms]
MultigridcudaGKOCG:  Solving for p, Initial residual = 0.194998, Final residual = 8.84269e-05, No Iterations 88
[INFO] SolveP: 243.497 [ms]
time step continuity errors : sum local = 1.37794e-08, global = -1.02364e-22, cumulative = -2.24697e-20
[INFO] ContinuityError: 4.41 [ms]
[INFO] CorrectBoundary: 0.097 [ms]
[INFO] PISOStep: 311.199 [ms]
[INFO] MatrixAssemblyPI: 34.558 [ms]
[INFO] AdjustPhi: 1.757 [ms]
[INFO] ConstrainPressure: 0.002 [ms]
[INFO] MatrixAssemblyPII: 12.052 [ms]
[OGL LOG][Proc: 0]: global_index_init: 0.007 [ms]
[OGL LOG][Proc: 0]p_local_coeffs: call_update: 0 [ms]
[OGL LOG][Proc: 0]p_non_local_coeffs: call_update: 0 [ms]
[OGL LOG][Proc: 0]p: update_local_matrix_data: 6.432 [ms]
[OGL LOG][Proc: 0]p: update_non_local_matrix_data: 0.057 [ms]
[OGL LOG][Proc: 0]p: regenerate_distributed_matrix: 24.117 [ms]
[OGL LOG][Proc: 0]p_matrix: call_update: 24.659 [ms]
[OGL LOG][Proc: 0]p_rhs: call_update: 0.304 [ms]
[OGL LOG][Preconditioner.H:346] Generate preconditioner Multigrid MaxLevels 9 MinCoarseRows 10 ZeroGuess 1 Cycle v
[OGL LOG][Proc: 0]p: init_precond: 69.201 [ms]
[OGL LOG][StoppingCriterion.H:237] Creating stopping criterion with minIter 52 frequency 1
[OGL LOG][Proc: 0]p: generate_solver: 0 [ms]
[OGL LOG][Proc: 0]p: solve: 136.635 [ms]
[OGL LOG][Proc: 0]p: copy_x_back: 0.976 [ms]
[OGL LOG][lduLduBase.H:330] 
Statistics:
	Time per iteration: 1552 [mu s]
	Time per residual norm calculation: 88.000000 [mu s]
	Time per iteration and DOF: 1.552000 [ns]
	Retrieve results bandwidth 2.049000 [GByte/s]
[OGL LOG][Proc: 0]p: solve_multi_gpu: 238.327 [ms]
MultigridcudaGKOCG:  Solving for p, Initial residual = 0.162019, Final residual = 9.60942e-05, No Iterations 88
[INFO] SolveP: 246.871 [ms]
time step continuity errors : sum local = 1.49853e-08, global = -8.97263e-21, cumulative = -3.14424e-20
[INFO] ContinuityError: 5.749 [ms]
[INFO] CorrectBoundary: 0.241 [ms]
[INFO] PISOStep: 316.923 [ms]
[INFO] TimeStep: 958.743 [ms]
ExecutionTime = 6.85 s  ClockTime = 7 s

Time = 0.0035

Courant Number mean: 0.0514175 max: 0.466753
[INFO] MatrixAssemblyU: 37.035 [ms]
DILUPBiCGStab:  Solving for Ux, Initial residual = 0.01462, Final residual = 4.31637e-05, No Iterations 5
DILUPBiCGStab:  Solving for Uy, Initial residual = 0.0317459, Final residual = 6.01182e-05, No Iterations 5
DILUPBiCGStab:  Solving for Uz, Initial residual = 0.0567684, Final residual = 0.000167559, No Iterations 5
[INFO] MomentumPredictor: 295.483 [ms]
[INFO] MatrixAssemblyPI: 40.223 [ms]
[INFO] AdjustPhi: 2.523 [ms]
[INFO] ConstrainPressure: 0.002 [ms]
[INFO] MatrixAssemblyPII: 11.259 [ms]
[OGL LOG][Proc: 0]: global_index_init: 0.013 [ms]
[OGL LOG][Proc: 0]p_local_coeffs: call_update: 0 [ms]
[OGL LOG][Proc: 0]p_non_local_coeffs: call_update: 0 [ms]
[OGL LOG][Proc: 0]p: update_local_matrix_data: 6.989 [ms]
[OGL LOG][Proc: 0]p: update_non_local_matrix_data: 0.084 [ms]
[OGL LOG][Proc: 0]p: regenerate_distributed_matrix: 25.782 [ms]
[OGL LOG][Proc: 0]p_matrix: call_update: 26.298 [ms]
[OGL LOG][Proc: 0]p_rhs: call_update: 0.256 [ms]
[OGL LOG][Preconditioner.H:346] Generate preconditioner Multigrid MaxLevels 9 MinCoarseRows 10 ZeroGuess 1 Cycle v
[OGL LOG][Proc: 0]p: init_precond: 68.83 [ms]
[OGL LOG][StoppingCriterion.H:237] Creating stopping criterion with minIter 52 frequency 1
[OGL LOG][Proc: 0]p: generate_solver: 0 [ms]
[OGL LOG][Proc: 0]p: solve: 135.412 [ms]
[OGL LOG][Proc: 0]p: copy_x_back: 0.649 [ms]
[OGL LOG][lduLduBase.H:330] 
Statistics:
	Time per iteration: 1538 [mu s]
	Time per residual norm calculation: 87.000000 [mu s]
	Time per iteration and DOF: 1.538000 [ns]
	Retrieve results bandwidth 3.081000 [GByte/s]
[OGL LOG][Proc: 0]p: solve_multi_gpu: 237.938 [ms]
MultigridcudaGKOCG:  Solving for p, Initial residual = 0.138456, Final residual = 9.39871e-05, No Iterations 88
[INFO] SolveP: 246.503 [ms]
time step continuity errors : sum local = 1.38989e-08, global = 2.28535e-21, cumulative = -2.9157e-20
[INFO] ContinuityError: 4.449 [ms]
[INFO] CorrectBoundary: 0.109 [ms]
[INFO] PISOStep: 319.694 [ms]
[INFO] MatrixAssemblyPI: 34.718 [ms]
[INFO] AdjustPhi: 1.727 [ms]
[INFO] ConstrainPressure: 0.002 [ms]
[INFO] MatrixAssemblyPII: 11.289 [ms]
[OGL LOG][Proc: 0]: global_index_init: 0.037 [ms]
[OGL LOG][Proc: 0]p_local_coeffs: call_update: 0 [ms]
[OGL LOG][Proc: 0]p_non_local_coeffs: call_update: 0 [ms]
[OGL LOG][Proc: 0]p: update_local_matrix_data: 6.556 [ms]
[OGL LOG][Proc: 0]p: update_non_local_matrix_data: 0.056 [ms]
[OGL LOG][Proc: 0]p: regenerate_distributed_matrix: 24.294 [ms]
[OGL LOG][Proc: 0]p_matrix: call_update: 24.763 [ms]
[OGL LOG][Proc: 0]p_rhs: call_update: 0.231 [ms]
[OGL LOG][Preconditioner.H:346] Generate preconditioner Multigrid MaxLevels 9 MinCoarseRows 10 ZeroGuess 1 Cycle v
[OGL LOG][Proc: 0]p: init_precond: 68.35 [ms]
[OGL LOG][StoppingCriterion.H:237] Creating stopping criterion with minIter 52 frequency 1
[OGL LOG][Proc: 0]p: generate_solver: 0 [ms]
[OGL LOG][Proc: 0]p: solve: 137.705 [ms]
[OGL LOG][Proc: 0]p: copy_x_back: 0.582 [ms]
[OGL LOG][lduLduBase.H:330] 
Statistics:
	Time per iteration: 1547 [mu s]
	Time per residual norm calculation: 86.000000 [mu s]
	Time per iteration and DOF: 1.547000 [ns]
	Retrieve results bandwidth 3.436000 [GByte/s]
[OGL LOG][Proc: 0]p: solve_multi_gpu: 238.147 [ms]
MultigridcudaGKOCG:  Solving for p, Initial residual = 0.115815, Final residual = 9.08611e-05, No Iterations 89
[INFO] SolveP: 246.315 [ms]
time step continuity errors : sum local = 1.34317e-08, global = -2.51282e-21, cumulative = -3.16698e-20
[INFO] ContinuityError: 4.335 [ms]
[INFO] CorrectBoundary: 0.112 [ms]
[INFO] PISOStep: 313.356 [ms]
[INFO] TimeStep: 970.411 [ms]
ExecutionTime = 7.82 s  ClockTime = 8 s

Time = 0.004

Courant Number mean: 0.0543556 max: 0.468961
[INFO] MatrixAssemblyU: 36.076 [ms]
DILUPBiCGStab:  Solving for Ux, Initial residual = 0.0122658, Final residual = 3.51827e-05, No Iterations 5
DILUPBiCGStab:  Solving for Uy, Initial residual = 0.0264983, Final residual = 3.25438e-05, No Iterations 5
DILUPBiCGStab:  Solving for Uz, Initial residual = 0.0504406, Final residual = 0.000116105, No Iterations 5
[INFO] MomentumPredictor: 288.623 [ms]
[INFO] MatrixAssemblyPI: 36.149 [ms]
[INFO] AdjustPhi: 1.838 [ms]
[INFO] ConstrainPressure: 0.002 [ms]
[INFO] MatrixAssemblyPII: 12.055 [ms]
[OGL LOG][Proc: 0]: global_index_init: 0.006 [ms]
[OGL LOG][Proc: 0]p_local_coeffs: call_update: 0 [ms]
[OGL LOG][Proc: 0]p_non_local_coeffs: call_update: 0 [ms]
[OGL LOG][Proc: 0]p: update_local_matrix_data: 6.517 [ms]
[OGL LOG][Proc: 0]p: update_non_local_matrix_data: 0.058 [ms]
[OGL LOG][Proc: 0]p: regenerate_distributed_matrix: 24.224 [ms]
[OGL LOG][Proc: 0]p_matrix: call_update: 24.724 [ms]
[OGL LOG][Proc: 0]p_rhs: call_update: 0.316 [ms]
[OGL LOG][Preconditioner.H:346] Generate preconditioner Multigrid MaxLevels 9 MinCoarseRows 10 ZeroGuess 1 Cycle v
[OGL LOG][Proc: 0]p: init_precond: 67.89 [ms]
[OGL LOG][StoppingCriterion.H:237] Creating stopping criterion with minIter 53 frequency 1
[OGL LOG][Proc: 0]p: generate_solver: 0 [ms]
[OGL LOG][Proc: 0]p: solve: 132.331 [ms]
[OGL LOG][Proc: 0]p: copy_x_back: 0.598 [ms]
[OGL LOG][lduLduBase.H:330] 
Statistics:
	Time per iteration: 1521 [mu s]
	Time per residual norm calculation: 86.000000 [mu s]
	Time per iteration and DOF: 1.521000 [ns]
	Retrieve results bandwidth 3.344000 [GByte/s]
[OGL LOG][Proc: 0]p: solve_multi_gpu: 232.486 [ms]
MultigridcudaGKOCG:  Solving for p, Initial residual = 0.0903948, Final residual = 9.37368e-05, No Iterations 87
[INFO] SolveP: 240.52 [ms]
time step continuity errors : sum local = 1.35891e-08, global = -1.37188e-21, cumulative = -3.30417e-20
[INFO] ContinuityError: 4.833 [ms]
[INFO] CorrectBoundary: 0.096 [ms]
[INFO] PISOStep: 309.694 [ms]
[INFO] MatrixAssemblyPI: 34.633 [ms]
[INFO] AdjustPhi: 1.84 [ms]
[INFO] ConstrainPressure: 0.002 [ms]
[INFO] MatrixAssemblyPII: 11.231 [ms]
[OGL LOG][Proc: 0]: global_index_init: 0.007 [ms]
[OGL LOG][Proc: 0]p_local_coeffs: call_update: 0 [ms]
[OGL LOG][Proc: 0]p_non_local_coeffs: call_update: 0 [ms]
[OGL LOG][Proc: 0]p: update_local_matrix_data: 6.45 [ms]
[OGL LOG][Proc: 0]p: update_non_local_matrix_data: 0.058 [ms]
[OGL LOG][Proc: 0]p: regenerate_distributed_matrix: 23.554 [ms]
[OGL LOG][Proc: 0]p_matrix: call_update: 24.105 [ms]
[OGL LOG][Proc: 0]p_rhs: call_update: 0.276 [ms]
[OGL LOG][Preconditioner.H:346] Generate preconditioner Multigrid MaxLevels 9 MinCoarseRows 10 ZeroGuess 1 Cycle v
[OGL LOG][Proc: 0]p: init_precond: 69.899 [ms]
[OGL LOG][StoppingCriterion.H:237] Creating stopping criterion with minIter 52 frequency 1
[OGL LOG][Proc: 0]p: generate_solver: 0 [ms]
[OGL LOG][Proc: 0]p: solve: 128.585 [ms]
[OGL LOG][Proc: 0]p: copy_x_back: 0.588 [ms]
[OGL LOG][lduLduBase.H:330] 
Statistics:
	Time per iteration: 1512 [mu s]
	Time per residual norm calculation: 89.000000 [mu s]
	Time per iteration and DOF: 1.512000 [ns]
	Retrieve results bandwidth 3.401000 [GByte/s]
[OGL LOG][Proc: 0]p: solve_multi_gpu: 230.07 [ms]
MultigridcudaGKOCG:  Solving for p, Initial residual = 0.0747632, Final residual = 9.83743e-05, No Iterations 85
[INFO] SolveP: 238.015 [ms]
time step continuity errors : sum local = 1.42636e-08, global = -3.87606e-21, cumulative = -3.69178e-20
[INFO] ContinuityError: 4.53 [ms]
[INFO] CorrectBoundary: 0.113 [ms]
[INFO] PISOStep: 304.393 [ms]
[INFO] TimeStep: 943.605 [ms]
ExecutionTime = 8.77 s  ClockTime = 9 s

Time = 0.0045

Courant Number mean: 0.0569321 max: 0.470662
[INFO] MatrixAssemblyU: 34.215 [ms]
DILUPBiCGStab:  Solving for Ux, Initial residual = 0.010518, Final residual = 2.72178e-05, No Iterations 5
DILUPBiCGStab:  Solving for Uy, Initial residual = 0.0226635, Final residual = 3.09027e-05, No Iterations 5
DILUPBiCGStab:  Solving for Uz, Initial residual = 0.0423785, Final residual = 9.01151e-05, No Iterations 5
[INFO] MomentumPredictor: 293.665 [ms]
[INFO] MatrixAssemblyPI: 38.263 [ms]
[INFO] AdjustPhi: 1.757 [ms]
[INFO] ConstrainPressure: 0.002 [ms]
[INFO] MatrixAssemblyPII: 11.676 [ms]
[OGL LOG][Proc: 0]: global_index_init: 0.01 [ms]
[OGL LOG][Proc: 0]p_local_coeffs: call_update: 0 [ms]
[OGL LOG][Proc: 0]p_non_local_coeffs: call_update: 0 [ms]
[OGL LOG][Proc: 0]p: update_local_matrix_data: 6.767 [ms]
[OGL LOG][Proc: 0]p: update_non_local_matrix_data: 0.082 [ms]
[OGL LOG][Proc: 0]p: regenerate_distributed_matrix: 24.474 [ms]
[OGL LOG][Proc: 0]p_matrix: call_update: 25.002 [ms]
[OGL LOG][Proc: 0]p_rhs: call_update: 0.264 [ms]
[OGL LOG][Preconditioner.H:346] Generate preconditioner Multigrid MaxLevels 9 MinCoarseRows 10 ZeroGuess 1 Cycle v
[OGL LOG][Proc: 0]p: init_precond: 67.531 [ms]
[OGL LOG][StoppingCriterion.H:237] Creating stopping criterion with minIter 51 frequency 1
[OGL LOG][Proc: 0]p: generate_solver: 0 [ms]
[OGL LOG][Proc: 0]p: solve: 81.658 [ms]
[OGL LOG][Proc: 0]p: copy_x_back: 0.91 [ms]
[OGL LOG][lduLduBase.H:330] 
Statistics:
	Time per iteration: 1570 [mu s]
	Time per residual norm calculation: 101.000000 [mu s]
	Time per iteration and DOF: 1.570000 [ns]
	Retrieve results bandwidth 2.197000 [GByte/s]
[OGL LOG][Proc: 0]p: solve_multi_gpu: 181.914 [ms]
MultigridcudaGKOCG:  Solving for p, Initial residual = 0.0663742, Final residual = 8.57053e-05, No Iterations 52
[INFO] SolveP: 190.381 [ms]
time step continuity errors : sum local = 1.31768e-08, global = -2.37747e-21, cumulative = -3.92952e-20
[INFO] ContinuityError: 4.383 [ms]
[INFO] CorrectBoundary: 1.763 [ms]
[INFO] PISOStep: 262.789 [ms]
[INFO] MatrixAssemblyPI: 36.188 [ms]
[INFO] AdjustPhi: 2.679 [ms]
[INFO] ConstrainPressure: 0.002 [ms]
[INFO] MatrixAssemblyPII: 11.261 [ms]
[OGL LOG][Proc: 0]: global_index_init: 0.013 [ms]
[OGL LOG][Proc: 0]p_local_coeffs: call_update: 0 [ms]
[OGL LOG][Proc: 0]p_non_local_coeffs: call_update: 0 [ms]
[OGL LOG][Proc: 0]p: update_local_matrix_data: 6.221 [ms]
[OGL LOG][Proc: 0]p: update_non_local_matrix_data: 0.058 [ms]
[OGL LOG][Proc: 0]p: regenerate_distributed_matrix: 25.82 [ms]
[OGL LOG][Proc: 0]p_matrix: call_update: 26.289 [ms]
[OGL LOG][Proc: 0]p_rhs: call_update: 0.322 [ms]
[OGL LOG][Preconditioner.H:346] Generate preconditioner Multigrid MaxLevels 9 MinCoarseRows 10 ZeroGuess 1 Cycle v
[OGL LOG][Proc: 0]p: init_precond: 67.998 [ms]
[OGL LOG][StoppingCriterion.H:237] Creating stopping criterion with minIter 31 frequency 1
[OGL LOG][Proc: 0]p: generate_solver: 0 [ms]
[OGL LOG][Proc: 0]p: solve: 68.964 [ms]
[OGL LOG][Proc: 0]p: copy_x_back: 0.571 [ms]
[OGL LOG][lduLduBase.H:330] 
Statistics:
	Time per iteration: 1682 [mu s]
	Time per residual norm calculation: 90.000000 [mu s]
	Time per iteration and DOF: 1.682000 [ns]
	Retrieve results bandwidth 3.502000 [GByte/s]
[OGL LOG][Proc: 0]p: solve_multi_gpu: 172.354 [ms]
MultigridcudaGKOCG:  Solving for p, Initial residual = 0.0553596, Final residual = 9.83475e-05, No Iterations 41
[INFO] SolveP: 180.637 [ms]
time step continuity errors : sum local = 1.43239e-08, global = -1.25588e-21, cumulative = -4.05511e-20
[INFO] ContinuityError: 6.538 [ms]
[INFO] CorrectBoundary: 0.784 [ms]
[INFO] PISOStep: 252.651 [ms]
[INFO] TimeStep: 847.998 [ms]
ExecutionTime = 9.61 s  ClockTime = 10 s

Time = 0.005

Courant Number mean: 0.0592265 max: 0.472057
[INFO] MatrixAssemblyU: 36.41 [ms]
DILUPBiCGStab:  Solving for Ux, Initial residual = 0.00920559, Final residual = 2.27287e-05, No Iterations 5
DILUPBiCGStab:  Solving for Uy, Initial residual = 0.0197255, Final residual = 2.09844e-05, No Iterations 5
DILUPBiCGStab:  Solving for Uz, Initial residual = 0.0379026, Final residual = 6.71618e-05, No Iterations 5
[INFO] MomentumPredictor: 288.119 [ms]
[INFO] MatrixAssemblyPI: 35.731 [ms]
[INFO] AdjustPhi: 1.683 [ms]
[INFO] ConstrainPressure: 0.001 [ms]
[INFO] MatrixAssemblyPII: 11.218 [ms]
[OGL LOG][Proc: 0]: global_index_init: 0.007 [ms]
[OGL LOG][Proc: 0]p_local_coeffs: call_update: 0 [ms]
[OGL LOG][Proc: 0]p_non_local_coeffs: call_update: 0 [ms]
[OGL LOG][Proc: 0]p: update_local_matrix_data: 6.316 [ms]
[OGL LOG][Proc: 0]p: update_non_local_matrix_data: 0.059 [ms]
[OGL LOG][Proc: 0]p: regenerate_distributed_matrix: 23.976 [ms]
[OGL LOG][Proc: 0]p_matrix: call_update: 24.534 [ms]
[OGL LOG][Proc: 0]p_rhs: call_update: 0.357 [ms]
[OGL LOG][Preconditioner.H:346] Generate preconditioner Multigrid MaxLevels 9 MinCoarseRows 10 ZeroGuess 1 Cycle v
[OGL LOG][Proc: 0]p: init_precond: 69.249 [ms]
[OGL LOG][StoppingCriterion.H:237] Creating stopping criterion with minIter 24 frequency 1
[OGL LOG][Proc: 0]p: generate_solver: 0 [ms]
[OGL LOG][Proc: 0]p: solve: 64.539 [ms]
[OGL LOG][Proc: 0]p: copy_x_back: 0.573 [ms]
[OGL LOG][lduLduBase.H:330] 
Statistics:
	Time per iteration: 1698 [mu s]
	Time per residual norm calculation: 87.000000 [mu s]
	Time per iteration and DOF: 1.698000 [ns]
	Retrieve results bandwidth 3.490000 [GByte/s]
[OGL LOG][Proc: 0]p: solve_multi_gpu: 166.051 [ms]
MultigridcudaGKOCG:  Solving for p, Initial residual = 0.0443342, Final residual = 9.75476e-05, No Iterations 38
[INFO] SolveP: 173.899 [ms]
time step continuity errors : sum local = 1.38644e-08, global = -2.18287e-21, cumulative = -4.2734e-20
[INFO] ContinuityError: 4.538 [ms]
[INFO] CorrectBoundary: 0.095 [ms]
[INFO] PISOStep: 242.057 [ms]
[INFO] MatrixAssemblyPI: 35.454 [ms]
[INFO] AdjustPhi: 1.808 [ms]
[INFO] ConstrainPressure: 0.002 [ms]
[INFO] MatrixAssemblyPII: 11.388 [ms]
[OGL LOG][Proc: 0]: global_index_init: 0.022 [ms]
[OGL LOG][Proc: 0]p_local_coeffs: call_update: 0 [ms]
[OGL LOG][Proc: 0]p_non_local_coeffs: call_update: 0 [ms]
[OGL LOG][Proc: 0]p: update_local_matrix_data: 6.78 [ms]
[OGL LOG][Proc: 0]p: update_non_local_matrix_data: 0.057 [ms]
[OGL LOG][Proc: 0]p: regenerate_distributed_matrix: 24.072 [ms]
[OGL LOG][Proc: 0]p_matrix: call_update: 24.541 [ms]
[OGL LOG][Proc: 0]p_rhs: call_update: 0.42 [ms]
[OGL LOG][Preconditioner.H:346] Generate preconditioner Multigrid MaxLevels 9 MinCoarseRows 10 ZeroGuess 1 Cycle v
[OGL LOG][Proc: 0]p: init_precond: 68.153 [ms]
[OGL LOG][StoppingCriterion.H:237] Creating stopping criterion with minIter 22 frequency 1
[OGL LOG][Proc: 0]p: generate_solver: 0.001 [ms]
[OGL LOG][Proc: 0]p: solve: 64.573 [ms]
[OGL LOG][Proc: 0]p: copy_x_back: 0.537 [ms]
[OGL LOG][lduLduBase.H:330] 
Statistics:
	Time per iteration: 1699 [mu s]
	Time per residual norm calculation: 86.000000 [mu s]
	Time per iteration and DOF: 1.699000 [ns]
	Retrieve results bandwidth 3.724000 [GByte/s]
[OGL LOG][Proc: 0]p: solve_multi_gpu: 164.889 [ms]
MultigridcudaGKOCG:  Solving for p, Initial residual = 0.0373242, Final residual = 8.87613e-05, No Iterations 38
[INFO] SolveP: 173.266 [ms]
time step continuity errors : sum local = 1.25673e-08, global = -6.77965e-21, cumulative = -4.95136e-20
[INFO] ContinuityError: 4.41 [ms]
[INFO] CorrectBoundary: 0.1 [ms]
[INFO] PISOStep: 240.129 [ms]
[INFO] TimeStep: 811.441 [ms]
ExecutionTime = 10.42 s  ClockTime = 11 s

Time = 0.0055

Courant Number mean: 0.0612855 max: 0.473203
[INFO] MatrixAssemblyU: 36.016 [ms]
DILUPBiCGStab:  Solving for Ux, Initial residual = 0.00813025, Final residual = 1.87782e-05, No Iterations 5
DILUPBiCGStab:  Solving for Uy, Initial residual = 0.0174445, Final residual = 1.92701e-05, No Iterations 5
DILUPBiCGStab:  Solving for Uz, Initial residual = 0.0338547, Final residual = 5.61037e-05, No Iterations 5
[INFO] MomentumPredictor: 289.47 [ms]
[INFO] MatrixAssemblyPI: 35.917 [ms]
[INFO] AdjustPhi: 1.692 [ms]
[INFO] ConstrainPressure: 0.002 [ms]
[INFO] MatrixAssemblyPII: 11.252 [ms]
[OGL LOG][Proc: 0]: global_index_init: 0.008 [ms]
[OGL LOG][Proc: 0]p_local_coeffs: call_update: 0 [ms]
[OGL LOG][Proc: 0]p_non_local_coeffs: call_update: 0 [ms]
[OGL LOG][Proc: 0]p: update_local_matrix_data: 6.454 [ms]
[OGL LOG][Proc: 0]p: update_non_local_matrix_data: 0.057 [ms]
[OGL LOG][Proc: 0]p: regenerate_distributed_matrix: 25.563 [ms]
[OGL LOG][Proc: 0]p_matrix: call_update: 26.052 [ms]
[OGL LOG][Proc: 0]p_rhs: call_update: 0.515 [ms]
[OGL LOG][Preconditioner.H:346] Generate preconditioner Multigrid MaxLevels 9 MinCoarseRows 10 ZeroGuess 1 Cycle v
[OGL LOG][Proc: 0]p: init_precond: 66.949 [ms]
[OGL LOG][StoppingCriterion.H:237] Creating stopping criterion with minIter 22 frequency 1
[OGL LOG][Proc: 0]p: generate_solver: 0 [ms]
[OGL LOG][Proc: 0]p: solve: 81.846 [ms]
[OGL LOG][Proc: 0]p: copy_x_back: 0.635 [ms]
[OGL LOG][lduLduBase.H:330] 
Statistics:
	Time per iteration: 1996 [mu s]
	Time per residual norm calculation: 94.000000 [mu s]
	Time per iteration and DOF: 1.996000 [ns]
	Retrieve results bandwidth 3.149000 [GByte/s]
[OGL LOG][Proc: 0]p: solve_multi_gpu: 182.307 [ms]
MultigridcudaGKOCG:  Solving for p, Initial residual = 0.0346347, Final residual = 9.83375e-05, No Iterations 41
[INFO] SolveP: 190.484 [ms]
time step continuity errors : sum local = 1.50497e-08, global = -1.7254e-21, cumulative = -5.1239e-20
[INFO] ContinuityError: 4.636 [ms]
[INFO] CorrectBoundary: 0.281 [ms]
[INFO] PISOStep: 258.364 [ms]
[INFO] MatrixAssemblyPI: 35.311 [ms]
[INFO] AdjustPhi: 1.778 [ms]
[INFO] ConstrainPressure: 0.002 [ms]
[INFO] MatrixAssemblyPII: 11.097 [ms]
[OGL LOG][Proc: 0]: global_index_init: 0.007 [ms]
[OGL LOG][Proc: 0]p_local_coeffs: call_update: 0 [ms]
[OGL LOG][Proc: 0]p_non_local_coeffs: call_update: 0 [ms]
[OGL LOG][Proc: 0]p: update_local_matrix_data: 6.442 [ms]
[OGL LOG][Proc: 0]p: update_non_local_matrix_data: 0.058 [ms]
[OGL LOG][Proc: 0]p: regenerate_distributed_matrix: 24.966 [ms]
[OGL LOG][Proc: 0]p_matrix: call_update: 25.485 [ms]
[OGL LOG][Proc: 0]p_rhs: call_update: 0.332 [ms]
[OGL LOG][Preconditioner.H:346] Generate preconditioner Multigrid MaxLevels 9 MinCoarseRows 10 ZeroGuess 1 Cycle v
[OGL LOG][Proc: 0]p: init_precond: 67.703 [ms]
[OGL LOG][StoppingCriterion.H:237] Creating stopping criterion with minIter 24 frequency 1
[OGL LOG][Proc: 0]p: generate_solver: 0.001 [ms]
[OGL LOG][Proc: 0]p: solve: 76.421 [ms]
[OGL LOG][Proc: 0]p: copy_x_back: 0.586 [ms]
[OGL LOG][lduLduBase.H:330] 
Statistics:
	Time per iteration: 2011 [mu s]
	Time per residual norm calculation: 88.000000 [mu s]
	Time per iteration and DOF: 2.011000 [ns]
	Retrieve results bandwidth 3.412000 [GByte/s]
[OGL LOG][Proc: 0]p: solve_multi_gpu: 176.845 [ms]
MultigridcudaGKOCG:  Solving for p, Initial residual = 0.029351, Final residual = 8.93786e-05, No Iterations 38
[INFO] SolveP: 184.899 [ms]
time step continuity errors : sum local = 1.30001e-08, global = -7.13619e-21, cumulative = -5.83752e-20
[INFO] ContinuityError: 4.332 [ms]
[INFO] CorrectBoundary: 0.098 [ms]
[INFO] PISOStep: 252.279 [ms]
[INFO] TimeStep: 840.938 [ms]
ExecutionTime = 11.26 s  ClockTime = 12 s

Time = 0.006

Courant Number mean: 0.0631563 max: 0.474181
[INFO] MatrixAssemblyU: 32.155 [ms]
DILUPBiCGStab:  Solving for Ux, Initial residual = 0.0072738, Final residual = 1.63054e-05, No Iterations 5
DILUPBiCGStab:  Solving for Uy, Initial residual = 0.0155808, Final residual = 1.43844e-05, No Iterations 5
DILUPBiCGStab:  Solving for Uz, Initial residual = 0.0305488, Final residual = 4.83374e-05, No Iterations 5
[INFO] MomentumPredictor: 294.033 [ms]
[INFO] MatrixAssemblyPI: 38.936 [ms]
[INFO] AdjustPhi: 1.81 [ms]
[INFO] ConstrainPressure: 0.002 [ms]
[INFO] MatrixAssemblyPII: 11.594 [ms]
[OGL LOG][Proc: 0]: global_index_init: 0.011 [ms]
[OGL LOG][Proc: 0]p_local_coeffs: call_update: 0 [ms]
[OGL LOG][Proc: 0]p_non_local_coeffs: call_update: 0 [ms]
[OGL LOG][Proc: 0]p: update_local_matrix_data: 6.716 [ms]
[OGL LOG][Proc: 0]p: update_non_local_matrix_data: 0.082 [ms]
[OGL LOG][Proc: 0]p: regenerate_distributed_matrix: 25.483 [ms]
[OGL LOG][Proc: 0]p_matrix: call_update: 25.938 [ms]
[OGL LOG][Proc: 0]p_rhs: call_update: 0.305 [ms]
[OGL LOG][Preconditioner.H:346] Generate preconditioner Multigrid MaxLevels 9 MinCoarseRows 10 ZeroGuess 1 Cycle v
[OGL LOG][Proc: 0]p: init_precond: 69.624 [ms]
[OGL LOG][StoppingCriterion.H:237] Creating stopping criterion with minIter 22 frequency 1
[OGL LOG][Proc: 0]p: generate_solver: 0.001 [ms]
[OGL LOG][Proc: 0]p: solve: 76.729 [ms]
[OGL LOG][Proc: 0]p: copy_x_back: 0.907 [ms]
[OGL LOG][lduLduBase.H:330] 
Statistics:
	Time per iteration: 2019 [mu s]
	Time per residual norm calculation: 89.000000 [mu s]
	Time per iteration and DOF: 2.019000 [ns]
	Retrieve results bandwidth 2.205000 [GByte/s]
[OGL LOG][Proc: 0]p: solve_multi_gpu: 179.964 [ms]
MultigridcudaGKOCG:  Solving for p, Initial residual = 0.0247655, Final residual = 8.86174e-05, No Iterations 38
[INFO] SolveP: 188.381 [ms]
time step continuity errors : sum local = 1.29951e-08, global = 7.98255e-22, cumulative = -5.7577e-20
[INFO] ContinuityError: 4.367 [ms]
[INFO] CorrectBoundary: 0.096 [ms]
[INFO] PISOStep: 259.054 [ms]
[INFO] MatrixAssemblyPI: 34.545 [ms]
[INFO] AdjustPhi: 1.741 [ms]
[INFO] ConstrainPressure: 0.003 [ms]
[INFO] MatrixAssemblyPII: 11.172 [ms]
[OGL LOG][Proc: 0]: global_index_init: 0.006 [ms]
[OGL LOG][Proc: 0]p_local_coeffs: call_update: 0 [ms]
[OGL LOG][Proc: 0]p_non_local_coeffs: call_update: 0 [ms]
[OGL LOG][Proc: 0]p: update_local_matrix_data: 6.431 [ms]
[OGL LOG][Proc: 0]p: update_non_local_matrix_data: 0.056 [ms]
[OGL LOG][Proc: 0]p: regenerate_distributed_matrix: 26.401 [ms]
[OGL LOG][Proc: 0]p_matrix: call_update: 26.884 [ms]
[OGL LOG][Proc: 0]p_rhs: call_update: 0.289 [ms]
[OGL LOG][Preconditioner.H:346] Generate preconditioner Multigrid MaxLevels 9 MinCoarseRows 10 ZeroGuess 1 Cycle v
[OGL LOG][Proc: 0]p: init_precond: 66.763 [ms]
[OGL LOG][StoppingCriterion.H:237] Creating stopping criterion with minIter 22 frequency 1
[OGL LOG][Proc: 0]p: generate_solver: 0 [ms]
[OGL LOG][Proc: 0]p: solve: 76.9 [ms]
[OGL LOG][Proc: 0]p: copy_x_back: 0.576 [ms]
[OGL LOG][lduLduBase.H:330] 
Statistics:
	Time per iteration: 2078 [mu s]
	Time per residual norm calculation: 96.000000 [mu s]
	Time per iteration and DOF: 2.078000 [ns]
	Retrieve results bandwidth 3.472000 [GByte/s]
[OGL LOG][Proc: 0]p: solve_multi_gpu: 177.951 [ms]
MultigridcudaGKOCG:  Solving for p, Initial residual = 0.021544, Final residual = 9.38098e-05, No Iterations 37
[INFO] SolveP: 185.996 [ms]
time step continuity errors : sum local = 1.32384e-08, global = 8.90331e-22, cumulative = -5.66866e-20
[INFO] ContinuityError: 4.485 [ms]
[INFO] CorrectBoundary: 0.099 [ms]
[INFO] PISOStep: 251.755 [ms]
[INFO] TimeStep: 842.185 [ms]
ExecutionTime = 12.1 s  ClockTime = 13 s

Time = 0.0065

Courant Number mean: 0.0648593 max: 0.475015
[INFO] MatrixAssemblyU: 36.589 [ms]
DILUPBiCGStab:  Solving for Ux, Initial residual = 0.00655321, Final residual = 1.40423e-05, No Iterations 5
DILUPBiCGStab:  Solving for Uy, Initial residual = 0.0140462, Final residual = 1.34596e-05, No Iterations 5
DILUPBiCGStab:  Solving for Uz, Initial residual = 0.0281577, Final residual = 4.30997e-05, No Iterations 5
[INFO] MomentumPredictor: 294.94 [ms]
[INFO] MatrixAssemblyPI: 37.511 [ms]
[INFO] AdjustPhi: 3.3 [ms]
[INFO] ConstrainPressure: 0.002 [ms]
[INFO] MatrixAssemblyPII: 11.245 [ms]
[OGL LOG][Proc: 0]: global_index_init: 0.017 [ms]
[OGL LOG][Proc: 0]p_local_coeffs: call_update: 0 [ms]
[OGL LOG][Proc: 0]p_non_local_coeffs: call_update: 0 [ms]
[OGL LOG][Proc: 0]p: update_local_matrix_data: 6.395 [ms]
[OGL LOG][Proc: 0]p: update_non_local_matrix_data: 0.058 [ms]
[OGL LOG][Proc: 0]p: regenerate_distributed_matrix: 24.868 [ms]
[OGL LOG][Proc: 0]p_matrix: call_update: 25.484 [ms]
[OGL LOG][Proc: 0]p_rhs: call_update: 0.282 [ms]
[OGL LOG][Preconditioner.H:346] Generate preconditioner Multigrid MaxLevels 9 MinCoarseRows 10 ZeroGuess 1 Cycle v
[OGL LOG][Proc: 0]p: init_precond: 70.109 [ms]
[OGL LOG][StoppingCriterion.H:237] Creating stopping criterion with minIter 22 frequency 1
[OGL LOG][Proc: 0]p: generate_solver: 0.001 [ms]
[OGL LOG][Proc: 0]p: solve: 139.064 [ms]
[OGL LOG][Proc: 0]p: copy_x_back: 0.609 [ms]
[OGL LOG][lduLduBase.H:330] 
Statistics:
	Time per iteration: 1675 [mu s]
	Time per residual norm calculation: 85.000000 [mu s]
	Time per iteration and DOF: 1.675000 [ns]
	Retrieve results bandwidth 3.284000 [GByte/s]
[OGL LOG][Proc: 0]p: solve_multi_gpu: 242.488 [ms]
MultigridcudaGKOCG:  Solving for p, Initial residual = 0.0203719, Final residual = 9.70516e-05, No Iterations 83
[INFO] SolveP: 250.486 [ms]
time step continuity errors : sum local = 1.36026e-08, global = 1.55319e-21, cumulative = -5.51335e-20
[INFO] ContinuityError: 6.239 [ms]
[INFO] CorrectBoundary: 0.569 [ms]
[INFO] PISOStep: 323.263 [ms]
[INFO] MatrixAssemblyPI: 35.475 [ms]
[INFO] AdjustPhi: 1.819 [ms]
[INFO] ConstrainPressure: 0.002 [ms]
[INFO] MatrixAssemblyPII: 11.178 [ms]
[OGL LOG][Proc: 0]: global_index_init: 0.007 [ms]
[OGL LOG][Proc: 0]p_local_coeffs: call_update: 0 [ms]
[OGL LOG][Proc: 0]p_non_local_coeffs: call_update: 0 [ms]
[OGL LOG][Proc: 0]p: update_local_matrix_data: 6.303 [ms]
[OGL LOG][Proc: 0]p: update_non_local_matrix_data: 0.056 [ms]
[OGL LOG][Proc: 0]p: regenerate_distributed_matrix: 25.124 [ms]
[OGL LOG][Proc: 0]p_matrix: call_update: 25.697 [ms]
[OGL LOG][Proc: 0]p_rhs: call_update: 0.317 [ms]
[OGL LOG][Preconditioner.H:346] Generate preconditioner Multigrid MaxLevels 9 MinCoarseRows 10 ZeroGuess 1 Cycle v
[OGL LOG][Proc: 0]p: init_precond: 67.758 [ms]
[OGL LOG][StoppingCriterion.H:237] Creating stopping criterion with minIter 49 frequency 1
[OGL LOG][Proc: 0]p: generate_solver: 0 [ms]
[OGL LOG][Proc: 0]p: solve: 128.507 [ms]
[OGL LOG][Proc: 0]p: copy_x_back: 0.808 [ms]
[OGL LOG][lduLduBase.H:330] 
Statistics:
	Time per iteration: 1548 [mu s]
	Time per residual norm calculation: 85.000000 [mu s]
	Time per iteration and DOF: 1.548000 [ns]
	Retrieve results bandwidth 2.475000 [GByte/s]
[OGL LOG][Proc: 0]p: solve_multi_gpu: 229.97 [ms]
MultigridcudaGKOCG:  Solving for p, Initial residual = 0.0178735, Final residual = 8.94451e-05, No Iterations 83
[INFO] SolveP: 237.87 [ms]
time step continuity errors : sum local = 1.25403e-08, global = 9.54044e-21, cumulative = -4.5593e-20
[INFO] ContinuityError: 4.431 [ms]
[INFO] CorrectBoundary: 0.097 [ms]
[INFO] PISOStep: 306.286 [ms]
[INFO] TimeStep: 965.947 [ms]
ExecutionTime = 13.07 s  ClockTime = 14 s

Time = 0.007

Courant Number mean: 0.0664262 max: 0.475744
[INFO] MatrixAssemblyU: 32.329 [ms]
DILUPBiCGStab:  Solving for Ux, Initial residual = 0.00595138, Final residual = 1.25086e-05, No Iterations 5
DILUPBiCGStab:  Solving for Uy, Initial residual = 0.0127518, Final residual = 1.11322e-05, No Iterations 5
DILUPBiCGStab:  Solving for Uz, Initial residual = 0.025264, Final residual = 3.50666e-05, No Iterations 5
[INFO] MomentumPredictor: 290.238 [ms]
[INFO] MatrixAssemblyPI: 36.025 [ms]
[INFO] AdjustPhi: 1.711 [ms]
[INFO] ConstrainPressure: 0.002 [ms]
[INFO] MatrixAssemblyPII: 11.182 [ms]
[OGL LOG][Proc: 0]: global_index_init: 0.007 [ms]
[OGL LOG][Proc: 0]p_local_coeffs: call_update: 0 [ms]
[OGL LOG][Proc: 0]p_non_local_coeffs: call_update: 0 [ms]
[OGL LOG][Proc: 0]p: update_local_matrix_data: 6.491 [ms]
[OGL LOG][Proc: 0]p: update_non_local_matrix_data: 0.06 [ms]
[OGL LOG][Proc: 0]p: regenerate_distributed_matrix: 25.596 [ms]
[OGL LOG][Proc: 0]p_matrix: call_update: 26.009 [ms]
[OGL LOG][Proc: 0]p_rhs: call_update: 0.216 [ms]
[OGL LOG][Preconditioner.H:346] Generate preconditioner Multigrid MaxLevels 9 MinCoarseRows 10 ZeroGuess 1 Cycle v
[OGL LOG][Proc: 0]p: init_precond: 67.704 [ms]
[OGL LOG][StoppingCriterion.H:237] Creating stopping criterion with minIter 49 frequency 1
[OGL LOG][Proc: 0]p: generate_solver: 0 [ms]
[OGL LOG][Proc: 0]p: solve: 79.688 [ms]
[OGL LOG][Proc: 0]p: copy_x_back: 0.597 [ms]
[OGL LOG][lduLduBase.H:330] 
Statistics:
	Time per iteration: 1593 [mu s]
	Time per residual norm calculation: 104.000000 [mu s]
	Time per iteration and DOF: 1.593000 [ns]
	Retrieve results bandwidth 3.350000 [GByte/s]
[OGL LOG][Proc: 0]p: solve_multi_gpu: 180.719 [ms]
MultigridcudaGKOCG:  Solving for p, Initial residual = 0.0159243, Final residual = 1.10605e-05, No Iterations 50
[INFO] SolveP: 188.786 [ms]
time step continuity errors : sum local = 1.68616e-09, global = 3.41375e-21, cumulative = -4.21793e-20
[INFO] ContinuityError: 4.246 [ms]
[INFO] CorrectBoundary: 0.1 [ms]
[INFO] PISOStep: 255.909 [ms]
[INFO] MatrixAssemblyPI: 34.761 [ms]
[INFO] AdjustPhi: 1.757 [ms]
[INFO] ConstrainPressure: 0.001 [ms]
[INFO] MatrixAssemblyPII: 11.213 [ms]
[OGL LOG][Proc: 0]: global_index_init: 0.009 [ms]
[OGL LOG][Proc: 0]p_local_coeffs: call_update: 0 [ms]
[OGL LOG][Proc: 0]p_non_local_coeffs: call_update: 0 [ms]
[OGL LOG][Proc: 0]p: update_local_matrix_data: 6.444 [ms]
[OGL LOG][Proc: 0]p: update_non_local_matrix_data: 0.056 [ms]
[OGL LOG][Proc: 0]p: regenerate_distributed_matrix: 24.383 [ms]
[OGL LOG][Proc: 0]p_matrix: call_update: 24.893 [ms]
[OGL LOG][Proc: 0]p_rhs: call_update: 0.533 [ms]
[OGL LOG][Preconditioner.H:346] Generate preconditioner Multigrid MaxLevels 9 MinCoarseRows 10 ZeroGuess 1 Cycle v
[OGL LOG][Proc: 0]p: init_precond: 67.533 [ms]
[OGL LOG][StoppingCriterion.H:237] Creating stopping criterion with minIter 30 frequency 1
[OGL LOG][Proc: 0]p: generate_solver: 0 [ms]
[OGL LOG][Proc: 0]p: solve: 62.848 [ms]
[OGL LOG][Proc: 0]p: copy_x_back: 0.593 [ms]
[OGL LOG][lduLduBase.H:330] 
Statistics:
	Time per iteration: 1698 [mu s]
	Time per residual norm calculation: 89.000000 [mu s]
	Time per iteration and DOF: 1.698000 [ns]
	Retrieve results bandwidth 3.372000 [GByte/s]
[OGL LOG][Proc: 0]p: solve_multi_gpu: 162.917 [ms]
MultigridcudaGKOCG:  Solving for p, Initial residual = 0.0143754, Final residual = 8.56058e-05, No Iterations 37
[INFO] SolveP: 170.943 [ms]
time step continuity errors : sum local = 1.20792e-08, global = -5.07201e-21, cumulative = -4.72513e-20
[INFO] ContinuityError: 4.372 [ms]
[INFO] CorrectBoundary: 0.109 [ms]
[INFO] PISOStep: 236.638 [ms]
[INFO] TimeStep: 820.412 [ms]
ExecutionTime = 13.88 s  ClockTime = 14 s

Time = 0.0075

Courant Number mean: 0.0678723 max: 0.476384
[INFO] MatrixAssemblyU: 34.791 [ms]
DILUPBiCGStab:  Solving for Ux, Initial residual = 0.00543097, Final residual = 1.11075e-05, No Iterations 5
DILUPBiCGStab:  Solving for Uy, Initial residual = 0.0116571, Final residual = 1.04799e-05, No Iterations 5
DILUPBiCGStab:  Solving for Uz, Initial residual = 0.0232586, Final residual = 2.96689e-05, No Iterations 5
[INFO] MomentumPredictor: 290.706 [ms]
[INFO] MatrixAssemblyPI: 36.164 [ms]
[INFO] AdjustPhi: 1.698 [ms]
[INFO] ConstrainPressure: 0.001 [ms]
[INFO] MatrixAssemblyPII: 11.322 [ms]
[OGL LOG][Proc: 0]: global_index_init: 0.029 [ms]
[OGL LOG][Proc: 0]p_local_coeffs: call_update: 0 [ms]
[OGL LOG][Proc: 0]p_non_local_coeffs: call_update: 0 [ms]
[OGL LOG][Proc: 0]p: update_local_matrix_data: 6.513 [ms]
[OGL LOG][Proc: 0]p: update_non_local_matrix_data: 0.059 [ms]
[OGL LOG][Proc: 0]p: regenerate_distributed_matrix: 23.878 [ms]
[OGL LOG][Proc: 0]p_matrix: call_update: 24.379 [ms]
[OGL LOG][Proc: 0]p_rhs: call_update: 0.241 [ms]
[OGL LOG][Preconditioner.H:346] Generate preconditioner Multigrid MaxLevels 9 MinCoarseRows 10 ZeroGuess 1 Cycle v
[OGL LOG][Proc: 0]p: init_precond: 68.493 [ms]
[OGL LOG][StoppingCriterion.H:237] Creating stopping criterion with minIter 22 frequency 1
[OGL LOG][Proc: 0]p: generate_solver: 0 [ms]
[OGL LOG][Proc: 0]p: solve: 63.777 [ms]
[OGL LOG][Proc: 0]p: copy_x_back: 0.575 [ms]
[OGL LOG][lduLduBase.H:330] 
Statistics:
	Time per iteration: 1723 [mu s]
	Time per residual norm calculation: 90.000000 [mu s]
	Time per iteration and DOF: 1.723000 [ns]
	Retrieve results bandwidth 3.478000 [GByte/s]
[OGL LOG][Proc: 0]p: solve_multi_gpu: 163.972 [ms]
MultigridcudaGKOCG:  Solving for p, Initial residual = 0.0137321, Final residual = 8.12015e-05, No Iterations 37
[INFO] SolveP: 172.188 [ms]
time step continuity errors : sum local = 1.18883e-08, global = 5.96971e-21, cumulative = -4.12816e-20
[INFO] ContinuityError: 5.028 [ms]
[INFO] CorrectBoundary: 0.317 [ms]
[INFO] PISOStep: 240.809 [ms]
[INFO] MatrixAssemblyPI: 34.62 [ms]
[INFO] AdjustPhi: 1.73 [ms]
[INFO] ConstrainPressure: 0.001 [ms]
[INFO] MatrixAssemblyPII: 11.301 [ms]
[OGL LOG][Proc: 0]: global_index_init: 0.007 [ms]
[OGL LOG][Proc: 0]p_local_coeffs: call_update: 0 [ms]
[OGL LOG][Proc: 0]p_non_local_coeffs: call_update: 0 [ms]
[OGL LOG][Proc: 0]p: update_local_matrix_data: 6.426 [ms]
[OGL LOG][Proc: 0]p: update_non_local_matrix_data: 0.056 [ms]
[OGL LOG][Proc: 0]p: regenerate_distributed_matrix: 24.451 [ms]
[OGL LOG][Proc: 0]p_matrix: call_update: 25.002 [ms]
[OGL LOG][Proc: 0]p_rhs: call_update: 0.28 [ms]
[OGL LOG][Preconditioner.H:346] Generate preconditioner Multigrid MaxLevels 9 MinCoarseRows 10 ZeroGuess 1 Cycle v
[OGL LOG][Proc: 0]p: init_precond: 67.786 [ms]
[OGL LOG][StoppingCriterion.H:237] Creating stopping criterion with minIter 22 frequency 1
[OGL LOG][Proc: 0]p: generate_solver: 0 [ms]
[OGL LOG][Proc: 0]p: solve: 64.371 [ms]
[OGL LOG][Proc: 0]p: copy_x_back: 1.268 [ms]
[OGL LOG][lduLduBase.H:330] 
Statistics:
	Time per iteration: 1788 [mu s]
	Time per residual norm calculation: 91.000000 [mu s]
	Time per iteration and DOF: 1.788000 [ns]
	Retrieve results bandwidth 1.577000 [GByte/s]
[OGL LOG][Proc: 0]p: solve_multi_gpu: 165.32 [ms]
MultigridcudaGKOCG:  Solving for p, Initial residual = 0.0125083, Final residual = 9.59084e-05, No Iterations 36
[INFO] SolveP: 173.879 [ms]
time step continuity errors : sum local = 1.3518e-08, global = -1.57614e-21, cumulative = -4.28577e-20
[INFO] ContinuityError: 4.895 [ms]
[INFO] CorrectBoundary: 0.138 [ms]
[INFO] PISOStep: 242.21 [ms]
[INFO] TimeStep: 813.188 [ms]
ExecutionTime = 14.7 s  ClockTime = 15 s

Time = 0.008

Courant Number mean: 0.0692086 max: 0.476952
[INFO] MatrixAssemblyU: 36.404 [ms]
DILUPBiCGStab:  Solving for Ux, Initial residual = 0.00498503, Final residual = 1.01059e-05, No Iterations 5
DILUPBiCGStab:  Solving for Uy, Initial residual = 0.0107121, Final residual = 9.36061e-06, No Iterations 5
DILUPBiCGStab:  Solving for Uz, Initial residual = 0.0214746, Final residual = 2.75985e-05, No Iterations 5
[INFO] MomentumPredictor: 290.761 [ms]
[INFO] MatrixAssemblyPI: 36.261 [ms]
[INFO] AdjustPhi: 1.707 [ms]
[INFO] ConstrainPressure: 0.002 [ms]
[INFO] MatrixAssemblyPII: 11.169 [ms]
[OGL LOG][Proc: 0]: global_index_init: 0.027 [ms]
[OGL LOG][Proc: 0]p_local_coeffs: call_update: 0 [ms]
[OGL LOG][Proc: 0]p_non_local_coeffs: call_update: 0 [ms]
[OGL LOG][Proc: 0]p: update_local_matrix_data: 6.761 [ms]
[OGL LOG][Proc: 0]p: update_non_local_matrix_data: 0.083 [ms]
[OGL LOG][Proc: 0]p: regenerate_distributed_matrix: 26.175 [ms]
[OGL LOG][Proc: 0]p_matrix: call_update: 26.648 [ms]
[OGL LOG][Proc: 0]p_rhs: call_update: 0.304 [ms]
[OGL LOG][Preconditioner.H:346] Generate preconditioner Multigrid MaxLevels 9 MinCoarseRows 10 ZeroGuess 1 Cycle v
[OGL LOG][Proc: 0]p: init_precond: 68.366 [ms]
[OGL LOG][StoppingCriterion.H:237] Creating stopping criterion with minIter 21 frequency 1
[OGL LOG][Proc: 0]p: generate_solver: 0 [ms]
[OGL LOG][Proc: 0]p: solve: 69.182 [ms]
[OGL LOG][Proc: 0]p: copy_x_back: 0.64 [ms]
[OGL LOG][lduLduBase.H:330] 
Statistics:
	Time per iteration: 2034 [mu s]
	Time per residual norm calculation: 91.000000 [mu s]
	Time per iteration and DOF: 2.034000 [ns]
	Retrieve results bandwidth 3.125000 [GByte/s]
[OGL LOG][Proc: 0]p: solve_multi_gpu: 171.644 [ms]
MultigridcudaGKOCG:  Solving for p, Initial residual = 0.0116136, Final residual = 9.49553e-05, No Iterations 34
[INFO] SolveP: 179.989 [ms]
time step continuity errors : sum local = 1.35924e-08, global = 1.42967e-21, cumulative = -4.1428e-20
[INFO] ContinuityError: 4.467 [ms]
[INFO] CorrectBoundary: 0.094 [ms]
[INFO] PISOStep: 247.043 [ms]
[INFO] MatrixAssemblyPI: 34.578 [ms]
[INFO] AdjustPhi: 1.769 [ms]
[INFO] ConstrainPressure: 0.002 [ms]
[INFO] MatrixAssemblyPII: 11.21 [ms]
[OGL LOG][Proc: 0]: global_index_init: 0.008 [ms]
[OGL LOG][Proc: 0]p_local_coeffs: call_update: 0 [ms]
[OGL LOG][Proc: 0]p_non_local_coeffs: call_update: 0 [ms]
[OGL LOG][Proc: 0]p: update_local_matrix_data: 6.397 [ms]
[OGL LOG][Proc: 0]p: update_non_local_matrix_data: 0.055 [ms]
[OGL LOG][Proc: 0]p: regenerate_distributed_matrix: 26.918 [ms]
[OGL LOG][Proc: 0]p_matrix: call_update: 27.414 [ms]
[OGL LOG][Proc: 0]p_rhs: call_update: 0.303 [ms]
[OGL LOG][Preconditioner.H:346] Generate preconditioner Multigrid MaxLevels 9 MinCoarseRows 10 ZeroGuess 1 Cycle v
[OGL LOG][Proc: 0]p: init_precond: 68.061 [ms]
[OGL LOG][StoppingCriterion.H:237] Creating stopping criterion with minIter 20 frequency 1
[OGL LOG][Proc: 0]p: generate_solver: 0 [ms]
[OGL LOG][Proc: 0]p: solve: 69.782 [ms]
[OGL LOG][Proc: 0]p: copy_x_back: 0.522 [ms]
[OGL LOG][lduLduBase.H:330] 
Statistics:
	Time per iteration: 2052 [mu s]
	Time per residual norm calculation: 91.000000 [mu s]
	Time per iteration and DOF: 2.052000 [ns]
	Retrieve results bandwidth 3.831000 [GByte/s]
[OGL LOG][Proc: 0]p: solve_multi_gpu: 172.593 [ms]
MultigridcudaGKOCG:  Solving for p, Initial residual = 0.0107659, Final residual = 8.78338e-05, No Iterations 34
[INFO] SolveP: 180.507 [ms]
time step continuity errors : sum local = 1.2405e-08, global = -4.17176e-21, cumulative = -4.55998e-20
[INFO] ContinuityError: 4.441 [ms]
[INFO] CorrectBoundary: 0.106 [ms]
[INFO] PISOStep: 246.165 [ms]
[INFO] TimeStep: 825.197 [ms]
ExecutionTime = 15.52 s  ClockTime = 16 s

Time = 0.0085

Courant Number mean: 0.0704534 max: 0.47746
[INFO] MatrixAssemblyU: 32.031 [ms]
DILUPBiCGStab:  Solving for Ux, Initial residual = 0.00459665, Final residual = 9.17826e-06, No Iterations 5
DILUPBiCGStab:  Solving for Uy, Initial residual = 0.00987786, Final residual = 8.75714e-06, No Iterations 5
DILUPBiCGStab:  Solving for Uz, Initial residual = 0.0202382, Final residual = 2.46212e-05, No Iterations 5
[INFO] MomentumPredictor: 289.497 [ms]
[INFO] MatrixAssemblyPI: 36.283 [ms]
[INFO] AdjustPhi: 1.757 [ms]
[INFO] ConstrainPressure: 0.002 [ms]
[INFO] MatrixAssemblyPII: 11.344 [ms]
[OGL LOG][Proc: 0]: global_index_init: 0.008 [ms]
[OGL LOG][Proc: 0]p_local_coeffs: call_update: 0 [ms]
[OGL LOG][Proc: 0]p_non_local_coeffs: call_update: 0 [ms]
[OGL LOG][Proc: 0]p: update_local_matrix_data: 6.408 [ms]
[OGL LOG][Proc: 0]p: update_non_local_matrix_data: 0.055 [ms]
[OGL LOG][Proc: 0]p: regenerate_distributed_matrix: 25.068 [ms]
[OGL LOG][Proc: 0]p_matrix: call_update: 25.518 [ms]
[OGL LOG][Proc: 0]p_rhs: call_update: 0.972 [ms]
[OGL LOG][Preconditioner.H:346] Generate preconditioner Multigrid MaxLevels 9 MinCoarseRows 10 ZeroGuess 1 Cycle v
[OGL LOG][Proc: 0]p: init_precond: 70.037 [ms]
[OGL LOG][StoppingCriterion.H:237] Creating stopping criterion with minIter 20 frequency 1
[OGL LOG][Proc: 0]p: generate_solver: 0.001 [ms]
[OGL LOG][Proc: 0]p: solve: 69.812 [ms]
[OGL LOG][Proc: 0]p: copy_x_back: 0.608 [ms]
[OGL LOG][lduLduBase.H:330] 
Statistics:
	Time per iteration: 1886 [mu s]
	Time per residual norm calculation: 88.000000 [mu s]
	Time per iteration and DOF: 1.886000 [ns]
	Retrieve results bandwidth 3.289000 [GByte/s]
[OGL LOG][Proc: 0]p: solve_multi_gpu: 173.423 [ms]
MultigridcudaGKOCG:  Solving for p, Initial residual = 0.0104426, Final residual = 9.42322e-05, No Iterations 37
[INFO] SolveP: 181.569 [ms]
time step continuity errors : sum local = 1.39916e-08, global = -1.97272e-21, cumulative = -4.75725e-20
[INFO] ContinuityError: 6.931 [ms]
[INFO] CorrectBoundary: 0.559 [ms]
[INFO] PISOStep: 252.005 [ms]
[INFO] MatrixAssemblyPI: 36.998 [ms]
[INFO] AdjustPhi: 2.1 [ms]
[INFO] ConstrainPressure: 0.002 [ms]
[INFO] MatrixAssemblyPII: 12.023 [ms]
[OGL LOG][Proc: 0]: global_index_init: 0.01 [ms]
[OGL LOG][Proc: 0]p_local_coeffs: call_update: 0 [ms]
[OGL LOG][Proc: 0]p_non_local_coeffs: call_update: 0 [ms]
[OGL LOG][Proc: 0]p: update_local_matrix_data: 6.358 [ms]
[OGL LOG][Proc: 0]p: update_non_local_matrix_data: 0.058 [ms]
[OGL LOG][Proc: 0]p: regenerate_distributed_matrix: 25.528 [ms]
[OGL LOG][Proc: 0]p_matrix: call_update: 26.145 [ms]
[OGL LOG][Proc: 0]p_rhs: call_update: 0.302 [ms]
[OGL LOG][Preconditioner.H:346] Generate preconditioner Multigrid MaxLevels 9 MinCoarseRows 10 ZeroGuess 1 Cycle v
[OGL LOG][Proc: 0]p: init_precond: 68.541 [ms]
[OGL LOG][StoppingCriterion.H:237] Creating stopping criterion with minIter 22 frequency 1
[OGL LOG][Proc: 0]p: generate_solver: 0.001 [ms]
[OGL LOG][Proc: 0]p: solve: 66.811 [ms]
[OGL LOG][Proc: 0]p: copy_x_back: 0.571 [ms]
[OGL LOG][lduLduBase.H:330] 
Statistics:
	Time per iteration: 1855 [mu s]
	Time per residual norm calculation: 89.000000 [mu s]
	Time per iteration and DOF: 1.855000 [ns]
	Retrieve results bandwidth 3.502000 [GByte/s]
[OGL LOG][Proc: 0]p: solve_multi_gpu: 169.177 [ms]
MultigridcudaGKOCG:  Solving for p, Initial residual = 0.00974193, Final residual = 9.97905e-05, No Iterations 36
[INFO] SolveP: 177.085 [ms]
time step continuity errors : sum local = 1.41751e-08, global = -7.13131e-21, cumulative = -5.47038e-20
[INFO] ContinuityError: 4.431 [ms]
[INFO] CorrectBoundary: 0.276 [ms]
[INFO] PISOStep: 246.85 [ms]
[INFO] TimeStep: 826.51 [ms]
ExecutionTime = 16.34 s  ClockTime = 17 s

Time = 0.009

Courant Number mean: 0.0716158 max: 0.477916
[INFO] MatrixAssemblyU: 34.244 [ms]
DILUPBiCGStab:  Solving for Ux, Initial residual = 0.00424976, Final residual = 8.46368e-06, No Iterations 5
DILUPBiCGStab:  Solving for Uy, Initial residual = 0.00916587, Final residual = 8.17794e-06, No Iterations 5
DILUPBiCGStab:  Solving for Uz, Initial residual = 0.0184277, Final residual = 2.41128e-05, No Iterations 5
[INFO] MomentumPredictor: 293.542 [ms]
[INFO] MatrixAssemblyPI: 36.793 [ms]
[INFO] AdjustPhi: 2.374 [ms]
[INFO] ConstrainPressure: 0.002 [ms]
[INFO] MatrixAssemblyPII: 11.058 [ms]
[OGL LOG][Proc: 0]: global_index_init: 0.007 [ms]
[OGL LOG][Proc: 0]p_local_coeffs: call_update: 0 [ms]
[OGL LOG][Proc: 0]p_non_local_coeffs: call_update: 0 [ms]
[OGL LOG][Proc: 0]p: update_local_matrix_data: 6.279 [ms]
[OGL LOG][Proc: 0]p: update_non_local_matrix_data: 0.057 [ms]
[OGL LOG][Proc: 0]p: regenerate_distributed_matrix: 27.465 [ms]
[OGL LOG][Proc: 0]p_matrix: call_update: 27.983 [ms]
[OGL LOG][Proc: 0]p_rhs: call_update: 0.302 [ms]
[OGL LOG][Preconditioner.H:346] Generate preconditioner Multigrid MaxLevels 9 MinCoarseRows 10 ZeroGuess 1 Cycle v
[OGL LOG][Proc: 0]p: init_precond: 68.158 [ms]
[OGL LOG][StoppingCriterion.H:237] Creating stopping criterion with minIter 21 frequency 1
[OGL LOG][Proc: 0]p: generate_solver: 0.001 [ms]
[OGL LOG][Proc: 0]p: solve: 56.603 [ms]
[OGL LOG][Proc: 0]p: copy_x_back: 0.548 [ms]
[OGL LOG][lduLduBase.H:330] 
Statistics:
	Time per iteration: 1768 [mu s]
	Time per residual norm calculation: 86.000000 [mu s]
	Time per iteration and DOF: 1.768000 [ns]
	Retrieve results bandwidth 3.649000 [GByte/s]
[OGL LOG][Proc: 0]p: solve_multi_gpu: 160.474 [ms]
MultigridcudaGKOCG:  Solving for p, Initial residual = 0.00942812, Final residual = 8.29235e-05, No Iterations 32
[INFO] SolveP: 168.295 [ms]
time step continuity errors : sum local = 1.23123e-08, global = -1.35759e-20, cumulative = -6.82797e-20
[INFO] ContinuityError: 4.375 [ms]
[INFO] CorrectBoundary: 0.097 [ms]
[INFO] PISOStep: 237.813 [ms]
[INFO] MatrixAssemblyPI: 34.738 [ms]
[INFO] AdjustPhi: 1.765 [ms]
[INFO] ConstrainPressure: 0.002 [ms]
[INFO] MatrixAssemblyPII: 11.185 [ms]
[OGL LOG][Proc: 0]: global_index_init: 0.006 [ms]
[OGL LOG][Proc: 0]p_local_coeffs: call_update: 0 [ms]
[OGL LOG][Proc: 0]p_non_local_coeffs: call_update: 0 [ms]
[OGL LOG][Proc: 0]p: update_local_matrix_data: 6.424 [ms]
[OGL LOG][Proc: 0]p: update_non_local_matrix_data: 0.056 [ms]
[OGL LOG][Proc: 0]p: regenerate_distributed_matrix: 23.821 [ms]
[OGL LOG][Proc: 0]p_matrix: call_update: 24.3 [ms]
[OGL LOG][Proc: 0]p_rhs: call_update: 0.318 [ms]
[OGL LOG][Preconditioner.H:346] Generate preconditioner Multigrid MaxLevels 9 MinCoarseRows 10 ZeroGuess 1 Cycle v
[OGL LOG][Proc: 0]p: init_precond: 68.804 [ms]
[OGL LOG][StoppingCriterion.H:237] Creating stopping criterion with minIter 19 frequency 1
[OGL LOG][Proc: 0]p: generate_solver: 0 [ms]
[OGL LOG][Proc: 0]p: solve: 55.941 [ms]
[OGL LOG][Proc: 0]p: copy_x_back: 0.625 [ms]
[OGL LOG][lduLduBase.H:330] 
Statistics:
	Time per iteration: 1804 [mu s]
	Time per residual norm calculation: 92.000000 [mu s]
	Time per iteration and DOF: 1.804000 [ns]
	Retrieve results bandwidth 3.200000 [GByte/s]
[OGL LOG][Proc: 0]p: solve_multi_gpu: 156.616 [ms]
MultigridcudaGKOCG:  Solving for p, Initial residual = 0.00886218, Final residual = 8.74331e-05, No Iterations 31
[INFO] SolveP: 164.584 [ms]
time step continuity errors : sum local = 1.24392e-08, global = 1.49619e-21, cumulative = -6.67835e-20
[INFO] ContinuityError: 4.46 [ms]
[INFO] CorrectBoundary: 0.102 [ms]
[INFO] PISOStep: 230.735 [ms]
[INFO] TimeStep: 802.354 [ms]
ExecutionTime = 17.15 s  ClockTime = 18 s

Time = 0.0095

Courant Number mean: 0.0727018 max: 0.478329
[INFO] MatrixAssemblyU: 32.808 [ms]
DILUPBiCGStab:  Solving for Ux, Initial residual = 0.00395282, Final residual = 7.79042e-06, No Iterations 5
DILUPBiCGStab:  Solving for Uy, Initial residual = 0.00850613, Final residual = 7.58655e-06, No Iterations 5
DILUPBiCGStab:  Solving for Uz, Initial residual = 0.0177004, Final residual = 2.35738e-05, No Iterations 5
[INFO] MomentumPredictor: 290.172 [ms]
[INFO] MatrixAssemblyPI: 36.006 [ms]
[INFO] AdjustPhi: 1.774 [ms]
[INFO] ConstrainPressure: 0.002 [ms]
[INFO] MatrixAssemblyPII: 11.158 [ms]
[OGL LOG][Proc: 0]: global_index_init: 0.007 [ms]
[OGL LOG][Proc: 0]p_local_coeffs: call_update: 0 [ms]
[OGL LOG][Proc: 0]p_non_local_coeffs: call_update: 0 [ms]
[OGL LOG][Proc: 0]p: update_local_matrix_data: 6.434 [ms]
[OGL LOG][Proc: 0]p: update_non_local_matrix_data: 0.054 [ms]
[OGL LOG][Proc: 0]p: regenerate_distributed_matrix: 24.337 [ms]
[OGL LOG][Proc: 0]p_matrix: call_update: 24.773 [ms]
[OGL LOG][Proc: 0]p_rhs: call_update: 0.301 [ms]
[OGL LOG][Preconditioner.H:346] Generate preconditioner Multigrid MaxLevels 9 MinCoarseRows 10 ZeroGuess 1 Cycle v
[OGL LOG][Proc: 0]p: init_precond: 67.987 [ms]
[OGL LOG][StoppingCriterion.H:237] Creating stopping criterion with minIter 18 frequency 1
[OGL LOG][Proc: 0]p: generate_solver: 0 [ms]
[OGL LOG][Proc: 0]p: solve: 128.402 [ms]
[OGL LOG][Proc: 0]p: copy_x_back: 0.525 [ms]
[OGL LOG][lduLduBase.H:330] 
Statistics:
	Time per iteration: 1585 [mu s]
	Time per residual norm calculation: 87.000000 [mu s]
	Time per iteration and DOF: 1.585000 [ns]
	Retrieve results bandwidth 3.809000 [GByte/s]
[OGL LOG][Proc: 0]p: solve_multi_gpu: 228.573 [ms]
MultigridcudaGKOCG:  Solving for p, Initial residual = 0.00872638, Final residual = 8.43522e-05, No Iterations 81
[INFO] SolveP: 236.582 [ms]
time step continuity errors : sum local = 1.18083e-08, global = 6.15893e-21, cumulative = -6.06246e-20
[INFO] ContinuityError: 4.42 [ms]
[INFO] CorrectBoundary: 0.112 [ms]
[INFO] PISOStep: 303.787 [ms]
[INFO] MatrixAssemblyPI: 34.63 [ms]
[INFO] AdjustPhi: 1.73 [ms]
[INFO] ConstrainPressure: 0.002 [ms]
[INFO] MatrixAssemblyPII: 11.2 [ms]
[OGL LOG][Proc: 0]: global_index_init: 0.008 [ms]
[OGL LOG][Proc: 0]p_local_coeffs: call_update: 0 [ms]
[OGL LOG][Proc: 0]p_non_local_coeffs: call_update: 0 [ms]
[OGL LOG][Proc: 0]p: update_local_matrix_data: 6.411 [ms]
[OGL LOG][Proc: 0]p: update_non_local_matrix_data: 0.057 [ms]
[OGL LOG][Proc: 0]p: regenerate_distributed_matrix: 24.519 [ms]
[OGL LOG][Proc: 0]p_matrix: call_update: 25.008 [ms]
[OGL LOG][Proc: 0]p_rhs: call_update: 0.3 [ms]
[OGL LOG][Preconditioner.H:346] Generate preconditioner Multigrid MaxLevels 9 MinCoarseRows 10 ZeroGuess 1 Cycle v
[OGL LOG][Proc: 0]p: init_precond: 67.84 [ms]
[OGL LOG][StoppingCriterion.H:237] Creating stopping criterion with minIter 48 frequency 1
[OGL LOG][Proc: 0]p: generate_solver: 0 [ms]
[OGL LOG][Proc: 0]p: solve: 125.629 [ms]
[OGL LOG][Proc: 0]p: copy_x_back: 0.576 [ms]
[OGL LOG][lduLduBase.H:330] 
Statistics:
	Time per iteration: 1550 [mu s]
	Time per residual norm calculation: 89.000000 [mu s]
	Time per iteration and DOF: 1.550000 [ns]
	Retrieve results bandwidth 3.472000 [GByte/s]
[OGL LOG][Proc: 0]p: solve_multi_gpu: 226.018 [ms]
MultigridcudaGKOCG:  Solving for p, Initial residual = 0.00824873, Final residual = 8.135e-05, No Iterations 81
[INFO] SolveP: 234.002 [ms]
time step continuity errors : sum local = 1.13915e-08, global = 4.92245e-21, cumulative = -5.57022e-20
[INFO] ContinuityError: 4.921 [ms]
[INFO] CorrectBoundary: 0.093 [ms]
[INFO] PISOStep: 300.845 [ms]
[INFO] TimeStep: 932.833 [ms]
ExecutionTime = 18.07 s  ClockTime = 19 s

Time = 0.01

Courant Number mean: 0.0737184 max: 0.478706
[INFO] MatrixAssemblyU: 32.582 [ms]
DILUPBiCGStab:  Solving for Ux, Initial residual = 0.00367562, Final residual = 7.24911e-06, No Iterations 5
DILUPBiCGStab:  Solving for Uy, Initial residual = 0.00794052, Final residual = 7.24464e-06, No Iterations 5
DILUPBiCGStab:  Solving for Uz, Initial residual = 0.01616, Final residual = 1.88195e-05, No Iterations 5
[INFO] MomentumPredictor: 290.346 [ms]
[INFO] MatrixAssemblyPI: 41.668 [ms]
[INFO] AdjustPhi: 1.818 [ms]
[INFO] ConstrainPressure: 0.002 [ms]
[INFO] MatrixAssemblyPII: 12.635 [ms]
[OGL LOG][Proc: 0]: global_index_init: 0.011 [ms]
[OGL LOG][Proc: 0]p_local_coeffs: call_update: 0 [ms]
[OGL LOG][Proc: 0]p_non_local_coeffs: call_update: 0 [ms]
[OGL LOG][Proc: 0]p: update_local_matrix_data: 6.826 [ms]
[OGL LOG][Proc: 0]p: update_non_local_matrix_data: 0.083 [ms]
[OGL LOG][Proc: 0]p: regenerate_distributed_matrix: 25.671 [ms]
[OGL LOG][Proc: 0]p_matrix: call_update: 26.081 [ms]
[OGL LOG][Proc: 0]p_rhs: call_update: 0.242 [ms]
[OGL LOG][Preconditioner.H:346] Generate preconditioner Multigrid MaxLevels 9 MinCoarseRows 10 ZeroGuess 1 Cycle v
[OGL LOG][Proc: 0]p: init_precond: 67.425 [ms]
[OGL LOG][StoppingCriterion.H:237] Creating stopping criterion with minIter 48 frequency 1
[OGL LOG][Proc: 0]p: generate_solver: 0 [ms]
[OGL LOG][Proc: 0]p: solve: 79.935 [ms]
[OGL LOG][Proc: 0]p: copy_x_back: 0.853 [ms]
[OGL LOG][lduLduBase.H:330] 
Statistics:
	Time per iteration: 1631 [mu s]
	Time per residual norm calculation: 104.000000 [mu s]
	Time per iteration and DOF: 1.631000 [ns]
	Retrieve results bandwidth 2.344000 [GByte/s]
[OGL LOG][Proc: 0]p: solve_multi_gpu: 181.1 [ms]
MultigridcudaGKOCG:  Solving for p, Initial residual = 0.00783388, Final residual = 2.05424e-05, No Iterations 49
[INFO] SolveP: 189.628 [ms]
time step continuity errors : sum local = 3.11408e-09, global = 2.0596e-21, cumulative = -5.36426e-20
[INFO] ContinuityError: 4.606 [ms]
[INFO] CorrectBoundary: 0.335 [ms]
[INFO] PISOStep: 264.952 [ms]
[INFO] MatrixAssemblyPI: 36.022 [ms]
[INFO] AdjustPhi: 1.813 [ms]
[INFO] ConstrainPressure: 0.003 [ms]
[INFO] MatrixAssemblyPII: 11.197 [ms]
[OGL LOG][Proc: 0]: global_index_init: 0.007 [ms]
[OGL LOG][Proc: 0]p_local_coeffs: call_update: 0 [ms]
[OGL LOG][Proc: 0]p_non_local_coeffs: call_update: 0 [ms]
[OGL LOG][Proc: 0]p: update_local_matrix_data: 6.465 [ms]
[OGL LOG][Proc: 0]p: update_non_local_matrix_data: 0.056 [ms]
[OGL LOG][Proc: 0]p: regenerate_distributed_matrix: 23.827 [ms]
[OGL LOG][Proc: 0]p_matrix: call_update: 24.314 [ms]
[OGL LOG][Proc: 0]p_rhs: call_update: 0.279 [ms]
[OGL LOG][Preconditioner.H:346] Generate preconditioner Multigrid MaxLevels 9 MinCoarseRows 10 ZeroGuess 1 Cycle v
[OGL LOG][Proc: 0]p: init_precond: 68.627 [ms]
[OGL LOG][StoppingCriterion.H:237] Creating stopping criterion with minIter 29 frequency 1
[OGL LOG][Proc: 0]p: generate_solver: 0 [ms]
[OGL LOG][Proc: 0]p: solve: 62.517 [ms]
[OGL LOG][Proc: 0]p: copy_x_back: 0.586 [ms]
[OGL LOG][lduLduBase.H:330] 
Statistics:
	Time per iteration: 1736 [mu s]
	Time per residual norm calculation: 88.000000 [mu s]
	Time per iteration and DOF: 1.736000 [ns]
	Retrieve results bandwidth 3.412000 [GByte/s]
[OGL LOG][Proc: 0]p: solve_multi_gpu: 162.801 [ms]
MultigridcudaGKOCG:  Solving for p, Initial residual = 0.00742432, Final residual = 9.48805e-05, No Iterations 36
[INFO] SolveP: 170.899 [ms]
time step continuity errors : sum local = 1.33918e-08, global = -4.70751e-21, cumulative = -5.83501e-20
[INFO] ContinuityError: 4.355 [ms]
[INFO] CorrectBoundary: 0.1 [ms]
[INFO] PISOStep: 237.984 [ms]
[INFO] TimeStep: 831.074 [ms]
ExecutionTime = 18.91 s  ClockTime = 19 s

End

Finalising parallel run
