/*---------------------------------------------------------------------------*\
| =========                 |                                                 |
| \\      /  F ield         | OpenFOAM: The Open Source CFD Toolbox           |
|  \\    /   O peration     | Version:  2306                                  |
|   \\  /    A nd           | Website:  www.openfoam.com                      |
|    \\/     M anipulation  |                                                 |
\*---------------------------------------------------------------------------*/
Build  : a6e826bd55-20230630 OPENFOAM=2306 version=v2306
Arch   : "LSB;label=32;scalar=64"
Exec   : icoFoam -parallel -case /tmp/lidDrivenCavity/workspace/1f924d1684c415e5852cda3cd42dd866/case
Date   : Jan 10 2024
Time   : 15:10:04
Host   : nla-gpu2.ianm.kit.edu
PID    : 431523
I/O    : uncollated
Case   : /tmp/lidDrivenCavity/workspace/1f924d1684c415e5852cda3cd42dd866/case
nProcs : 32
Hosts  :
(
    (nla-gpu2.ianm.kit.edu 32)
)
Pstream initialized with:
    floatTransfer      : false
    nProcsSimpleSum    : 0
    nonBlockingExchange: 0 (tuning: 0)
    exchange algorithm : -1
    commsType          : nonBlocking
    polling iterations : 0
trapFpe: Floating point exception trapping enabled (FOAM_SIGFPE).
fileModificationChecking : Monitoring run-time modified files using timeStampMaster (fileModificationSkew 5, maxFileModificationPolls 20)
allowSystemOperations : Allowing user-supplied system call operations

// * * * * * * * * * * * * * * * * * * * * * * * * * * * * * * * * * * * * * //
Create time

--> FOAM Warning : 
    From void* Foam::dlLibraryTable::openLibrary(const Foam::fileName&, bool)
    in file db/dynamicLibrary/dlLibraryTable/dlLibraryTable.C at line 188
    Could not load "libpetscFoam.so"
libpetscFoam.so: cannot open shared object file: No such file or directory
Create mesh for time = 0


PISO: Operating solver in PISO mode

Reading transportProperties

Reading field p

Reading field U

Reading/calculating face flux field phi


Starting time loop

Time = 0.000125

Courant Number mean: 8.02505e-18 max: 4.85723e-14
[INFO] MatrixAssemblyU: 563.67 [ms]
DILUPBiCGStab:  Solving for Ux, Initial residual = 1, Final residual = 0.0215184, No Iterations 5
DILUPBiCGStab:  Solving for Uy:  solution singularity
DILUPBiCGStab:  Solving for Uz:  solution singularity
[INFO] MomentumPredictor: 2071.82 [ms]
[INFO] MatrixAssemblyPI: 591.056 [ms]
[INFO] AdjustPhi: 26.4 [ms]
[INFO] ConstrainPressure: 0.014 [ms]
[INFO] MatrixAssemblyPII: 166.105 [ms]
nonePCG:  Solving for p, Initial residual = 1, Final residual = 9.90332e-05, No Iterations 3251
[INFO] SolveP: 205521 [ms]
time step continuity errors : sum local = 2.51223e-09, global = -2.32026e-22, cumulative = -2.32026e-22
[INFO] ContinuityError: 60.147 [ms]
[INFO] CorrectBoundary: 0.917 [ms]
[INFO] PISOStep: 206556 [ms]
[INFO] MatrixAssemblyPI: 557.034 [ms]
[INFO] AdjustPhi: 24.909 [ms]
[INFO] ConstrainPressure: 0.002 [ms]
[INFO] MatrixAssemblyPII: 166.53 [ms]
nonePCG:  Solving for p, Initial residual = 0.822079, Final residual = 9.90287e-05, No Iterations 3237
[INFO] SolveP: 204803 [ms]
time step continuity errors : sum local = 3.02665e-09, global = 4.87907e-22, cumulative = 2.55881e-22
[INFO] ContinuityError: 60.033 [ms]
[INFO] CorrectBoundary: 1.73 [ms]
[INFO] PISOStep: 205799 [ms]
[INFO] TimeStep: 415053 [ms]
ExecutionTime = 415.26 s  ClockTime = 417 s

Time = 0.00025

Courant Number mean: 0.0108529 max: 0.437705
[INFO] MatrixAssemblyU: 505.722 [ms]
DILUPBiCGStab:  Solving for Ux, Initial residual = 0.108168, Final residual = 0.0135461, No Iterations 5
DILUPBiCGStab:  Solving for Uy, Initial residual = 0.484635, Final residual = 0.0533658, No Iterations 5
DILUPBiCGStab:  Solving for Uz, Initial residual = 0.990101, Final residual = 0.120239, No Iterations 5
[INFO] MomentumPredictor: 3932.13 [ms]
[INFO] MatrixAssemblyPI: 574.5 [ms]
[INFO] AdjustPhi: 26.048 [ms]
[INFO] ConstrainPressure: 0.003 [ms]
[INFO] MatrixAssemblyPII: 165.592 [ms]
nonePCG:  Solving for p, Initial residual = 0.908271, Final residual = 9.83832e-05, No Iterations 3186
[INFO] SolveP: 201346 [ms]
time step continuity errors : sum local = 7.06129e-09, global = 8.24344e-22, cumulative = 1.08022e-21
[INFO] ContinuityError: 59.831 [ms]
[INFO] CorrectBoundary: 1.358 [ms]
[INFO] PISOStep: 202361 [ms]
[INFO] MatrixAssemblyPI: 556.547 [ms]
[INFO] AdjustPhi: 27.164 [ms]
[INFO] ConstrainPressure: 0.003 [ms]
[INFO] MatrixAssemblyPII: 163.026 [ms]
nonePCG:  Solving for p, Initial residual = 0.859111, Final residual = 9.87805e-05, No Iterations 3182
[INFO] SolveP: 201195 [ms]
time step continuity errors : sum local = 7.22435e-09, global = 1.61559e-24, cumulative = 1.08184e-21
[INFO] ContinuityError: 64.718 [ms]
[INFO] CorrectBoundary: 1.154 [ms]
[INFO] PISOStep: 202207 [ms]
[INFO] TimeStep: 409068 [ms]
ExecutionTime = 822.25 s  ClockTime = 826 s

Time = 0.000375

Courant Number mean: 0.0169392 max: 0.511586
[INFO] MatrixAssemblyU: 502.001 [ms]
DILUPBiCGStab:  Solving for Ux, Initial residual = 0.0536851, Final residual = 0.00548712, No Iterations 5
DILUPBiCGStab:  Solving for Uy, Initial residual = 0.261923, Final residual = 0.0267088, No Iterations 5
DILUPBiCGStab:  Solving for Uz, Initial residual = 0.870032, Final residual = 0.0867049, No Iterations 5
[INFO] MomentumPredictor: 3931.44 [ms]
[INFO] MatrixAssemblyPI: 572.88 [ms]
[INFO] AdjustPhi: 27.432 [ms]
[INFO] ConstrainPressure: 0.002 [ms]
[INFO] MatrixAssemblyPII: 164.256 [ms]
nonePCG:  Solving for p, Initial residual = 0.941473, Final residual = 9.90187e-05, No Iterations 1537
[INFO] SolveP: 97146.9 [ms]
time step continuity errors : sum local = 9.08086e-09, global = 3.66622e-22, cumulative = 1.44846e-21
[INFO] ContinuityError: 60.453 [ms]
[INFO] CorrectBoundary: 0.635 [ms]
[INFO] PISOStep: 98162.3 [ms]
[INFO] MatrixAssemblyPI: 558.624 [ms]
[INFO] AdjustPhi: 24.556 [ms]
[INFO] ConstrainPressure: 0.003 [ms]
[INFO] MatrixAssemblyPII: 167.099 [ms]
nonePCG:  Solving for p, Initial residual = 0.908932, Final residual = 9.9926e-05, No Iterations 1534
[INFO] SolveP: 97031.9 [ms]
time step continuity errors : sum local = 8.93325e-09, global = 2.24201e-22, cumulative = 1.67266e-21
[INFO] ContinuityError: 59.046 [ms]
[INFO] CorrectBoundary: 1.514 [ms]
[INFO] PISOStep: 98029.5 [ms]
[INFO] TimeStep: 200688 [ms]
ExecutionTime = 1021.92 s  ClockTime = 1027 s

Time = 0.0005

Courant Number mean: 0.0205469 max: 0.477562
[INFO] MatrixAssemblyU: 502.399 [ms]
DILUPBiCGStab:  Solving for Ux, Initial residual = 0.041627, Final residual = 0.00507902, No Iterations 5
DILUPBiCGStab:  Solving for Uy, Initial residual = 0.213998, Final residual = 0.0244207, No Iterations 5
DILUPBiCGStab:  Solving for Uz, Initial residual = 0.783594, Final residual = 0.0645161, No Iterations 5
[INFO] MomentumPredictor: 3938.16 [ms]
[INFO] MatrixAssemblyPI: 573.58 [ms]
[INFO] AdjustPhi: 26.438 [ms]
[INFO] ConstrainPressure: 0.003 [ms]
[INFO] MatrixAssemblyPII: 166.882 [ms]
nonePCG:  Solving for p, Initial residual = 0.938283, Final residual = 9.9204e-05, No Iterations 1533
[INFO] SolveP: 96846.1 [ms]
time step continuity errors : sum local = 1.13216e-08, global = -9.30578e-25, cumulative = 1.67173e-21
[INFO] ContinuityError: 60.511 [ms]
[INFO] CorrectBoundary: 0.758 [ms]
[INFO] PISOStep: 97861.4 [ms]
[INFO] MatrixAssemblyPI: 558.179 [ms]
[INFO] AdjustPhi: 24.42 [ms]
[INFO] ConstrainPressure: 0.002 [ms]
[INFO] MatrixAssemblyPII: 163.251 [ms]
nonePCG:  Solving for p, Initial residual = 0.880463, Final residual = 9.90665e-05, No Iterations 1512
[INFO] SolveP: 95456.4 [ms]
time step continuity errors : sum local = 1.11684e-08, global = 1.38553e-23, cumulative = 1.68559e-21
[INFO] ContinuityError: 60.366 [ms]
[INFO] CorrectBoundary: 0.617 [ms]
[INFO] PISOStep: 96454.2 [ms]
[INFO] TimeStep: 198818 [ms]
ExecutionTime = 1219.74 s  ClockTime = 1226 s

Time = 0.000625

Courant Number mean: 0.023617 max: 0.556183
[INFO] MatrixAssemblyU: 509.128 [ms]
DILUPBiCGStab:  Solving for Ux, Initial residual = 0.0376342, Final residual = 0.00462344, No Iterations 5
DILUPBiCGStab:  Solving for Uy, Initial residual = 0.184907, Final residual = 0.0203094, No Iterations 5
DILUPBiCGStab:  Solving for Uz, Initial residual = 0.756324, Final residual = 0.0562771, No Iterations 5
[INFO] MomentumPredictor: 3926.21 [ms]
[INFO] MatrixAssemblyPI: 575.098 [ms]
[INFO] AdjustPhi: 24.56 [ms]
[INFO] ConstrainPressure: 0.002 [ms]
[INFO] MatrixAssemblyPII: 166.932 [ms]
nonePCG:  Solving for p, Initial residual = 0.954419, Final residual = 9.97896e-05, No Iterations 3094
[INFO] SolveP: 195584 [ms]
time step continuity errors : sum local = 1.25094e-08, global = -9.05504e-23, cumulative = 1.59504e-21
[INFO] ContinuityError: 59.423 [ms]
[INFO] CorrectBoundary: 1.314 [ms]
[INFO] PISOStep: 196598 [ms]
[INFO] MatrixAssemblyPI: 555.036 [ms]
[INFO] AdjustPhi: 28.322 [ms]
[INFO] ConstrainPressure: 0.003 [ms]
[INFO] MatrixAssemblyPII: 165.295 [ms]
nonePCG:  Solving for p, Initial residual = 0.915201, Final residual = 9.97509e-05, No Iterations 3088
[INFO] SolveP: 195764 [ms]
time step continuity errors : sum local = 1.243e-08, global = 2.42403e-22, cumulative = 1.83744e-21
[INFO] ContinuityError: 60.062 [ms]
[INFO] CorrectBoundary: 1.509 [ms]
[INFO] PISOStep: 196762 [ms]
[INFO] TimeStep: 397858 [ms]
ExecutionTime = 1615.58 s  ClockTime = 1624 s

Time = 0.00075

Courant Number mean: 0.0259525 max: 0.483355
[INFO] MatrixAssemblyU: 503.884 [ms]
DILUPBiCGStab:  Solving for Ux, Initial residual = 0.0353975, Final residual = 0.00439578, No Iterations 5
DILUPBiCGStab:  Solving for Uy, Initial residual = 0.171568, Final residual = 0.0174391, No Iterations 5
DILUPBiCGStab:  Solving for Uz, Initial residual = 0.697445, Final residual = 0.0468622, No Iterations 5
[INFO] MomentumPredictor: 3930.19 [ms]
[INFO] MatrixAssemblyPI: 574.711 [ms]
[INFO] AdjustPhi: 27.044 [ms]
[INFO] ConstrainPressure: 0.002 [ms]
[INFO] MatrixAssemblyPII: 166.725 [ms]
nonePCG:  Solving for p, Initial residual = 0.951504, Final residual = 9.96582e-05, No Iterations 3093
[INFO] SolveP: 195288 [ms]
time step continuity errors : sum local = 1.44482e-08, global = -7.53833e-23, cumulative = 1.76206e-21
[INFO] ContinuityError: 59.671 [ms]
[INFO] CorrectBoundary: 1.247 [ms]
[INFO] PISOStep: 196306 [ms]
[INFO] MatrixAssemblyPI: 558.21 [ms]
[INFO] AdjustPhi: 24.651 [ms]
[INFO] ConstrainPressure: 0.002 [ms]
[INFO] MatrixAssemblyPII: 163.994 [ms]
nonePCG:  Solving for p, Initial residual = 0.891312, Final residual = 9.94867e-05, No Iterations 3089
[INFO] SolveP: 195328 [ms]
time step continuity errors : sum local = 1.4651e-08, global = 7.81301e-22, cumulative = 2.54336e-21
[INFO] ContinuityError: 57.879 [ms]
[INFO] CorrectBoundary: 1.21 [ms]
[INFO] PISOStep: 196323 [ms]
[INFO] TimeStep: 397125 [ms]
ExecutionTime = 2010.77 s  ClockTime = 2021 s

Time = 0.000875

Courant Number mean: 0.0281461 max: 0.61245
[INFO] MatrixAssemblyU: 505.138 [ms]
DILUPBiCGStab:  Solving for Ux, Initial residual = 0.0350559, Final residual = 0.004176, No Iterations 5
DILUPBiCGStab:  Solving for Uy, Initial residual = 0.176415, Final residual = 0.0165555, No Iterations 5
DILUPBiCGStab:  Solving for Uz, Initial residual = 0.69522, Final residual = 0.0424026, No Iterations 5
[INFO] MomentumPredictor: 3929.49 [ms]
[INFO] MatrixAssemblyPI: 571.855 [ms]
[INFO] AdjustPhi: 28.14 [ms]
[INFO] ConstrainPressure: 0.003 [ms]
[INFO] MatrixAssemblyPII: 166.41 [ms]
nonePCG:  Solving for p, Initial residual = 0.962336, Final residual = 9.91297e-05, No Iterations 1506
[INFO] SolveP: 95174.3 [ms]
time step continuity errors : sum local = 1.79145e-08, global = 9.29854e-22, cumulative = 3.47321e-21
[INFO] ContinuityError: 61.043 [ms]
[INFO] CorrectBoundary: 1.095 [ms]
[INFO] PISOStep: 96189 [ms]
[INFO] MatrixAssemblyPI: 556.728 [ms]
[INFO] AdjustPhi: 27.056 [ms]
[INFO] ConstrainPressure: 0.002 [ms]
[INFO] MatrixAssemblyPII: 166.965 [ms]
nonePCG:  Solving for p, Initial residual = 0.917686, Final residual = 9.88901e-05, No Iterations 1487
[INFO] SolveP: 93938.2 [ms]
time step continuity errors : sum local = 1.67055e-08, global = 3.74506e-22, cumulative = 3.84772e-21
[INFO] ContinuityError: 59.847 [ms]
[INFO] CorrectBoundary: 0.951 [ms]
[INFO] PISOStep: 94936.3 [ms]
[INFO] TimeStep: 195622 [ms]
ExecutionTime = 2205.45 s  ClockTime = 2217 s

Time = 0.001

Courant Number mean: 0.0298921 max: 0.491037
[INFO] MatrixAssemblyU: 504.423 [ms]
DILUPBiCGStab:  Solving for Ux, Initial residual = 0.0360865, Final residual = 0.00400668, No Iterations 5
DILUPBiCGStab:  Solving for Uy, Initial residual = 0.170509, Final residual = 0.0144737, No Iterations 5
DILUPBiCGStab:  Solving for Uz, Initial residual = 0.687201, Final residual = 0.0426097, No Iterations 5
[INFO] MomentumPredictor: 3933.14 [ms]
[INFO] MatrixAssemblyPI: 574.708 [ms]
[INFO] AdjustPhi: 24.753 [ms]
[INFO] ConstrainPressure: 0.003 [ms]
[INFO] MatrixAssemblyPII: 165.988 [ms]
nonePCG:  Solving for p, Initial residual = 0.960265, Final residual = 9.94465e-05, No Iterations 3073
[INFO] SolveP: 194335 [ms]
time step continuity errors : sum local = 1.87625e-08, global = 3.88251e-22, cumulative = 4.23597e-21
[INFO] ContinuityError: 60.801 [ms]
[INFO] CorrectBoundary: 1.004 [ms]
[INFO] PISOStep: 195349 [ms]
[INFO] MatrixAssemblyPI: 556.782 [ms]
[INFO] AdjustPhi: 26.854 [ms]
[INFO] ConstrainPressure: 0.002 [ms]
[INFO] MatrixAssemblyPII: 166.2 [ms]
nonePCG:  Solving for p, Initial residual = 0.898093, Final residual = 9.83026e-05, No Iterations 3071
[INFO] SolveP: 193950 [ms]
time step continuity errors : sum local = 1.88218e-08, global = 1.90487e-22, cumulative = 4.42646e-21
[INFO] ContinuityError: 60.02 [ms]
[INFO] CorrectBoundary: 0.771 [ms]
[INFO] PISOStep: 194948 [ms]
[INFO] TimeStep: 394797 [ms]
ExecutionTime = 2598.26 s  ClockTime = 2611 s

Time = 0.001125

Courant Number mean: 0.0316953 max: 0.696041
[INFO] MatrixAssemblyU: 506.492 [ms]
DILUPBiCGStab:  Solving for Ux, Initial residual = 0.0374706, Final residual = 0.00382208, No Iterations 5
DILUPBiCGStab:  Solving for Uy, Initial residual = 0.187084, Final residual = 0.0147538, No Iterations 5
DILUPBiCGStab:  Solving for Uz, Initial residual = 0.694039, Final residual = 0.0380994, No Iterations 5
[INFO] MomentumPredictor: 3929.68 [ms]
[INFO] MatrixAssemblyPI: 575.78 [ms]
[INFO] AdjustPhi: 24.234 [ms]
[INFO] ConstrainPressure: 0.003 [ms]
[INFO] MatrixAssemblyPII: 166.477 [ms]
nonePCG:  Solving for p, Initial residual = 0.968109, Final residual = 9.77966e-05, No Iterations 3071
[INFO] SolveP: 194023 [ms]
time step continuity errors : sum local = 2.11391e-08, global = 1.09703e-21, cumulative = 5.52348e-21
[INFO] ContinuityError: 58.483 [ms]
[INFO] CorrectBoundary: 2.082 [ms]
[INFO] PISOStep: 195036 [ms]
[INFO] MatrixAssemblyPI: 559.588 [ms]
[INFO] AdjustPhi: 23.821 [ms]
[INFO] ConstrainPressure: 0.002 [ms]
[INFO] MatrixAssemblyPII: 165.732 [ms]
nonePCG:  Solving for p, Initial residual = 0.918599, Final residual = 9.79568e-05, No Iterations 3069
[INFO] SolveP: 194007 [ms]
time step continuity errors : sum local = 2.11471e-08, global = -3.56334e-22, cumulative = 5.16715e-21
[INFO] ContinuityError: 59.928 [ms]
[INFO] CorrectBoundary: 1.289 [ms]
[INFO] PISOStep: 195005 [ms]
[INFO] TimeStep: 394540 [ms]
ExecutionTime = 2990.81 s  ClockTime = 3006 s

Time = 0.00125

Courant Number mean: 0.0331077 max: 0.507095
[INFO] MatrixAssemblyU: 508.608 [ms]
DILUPBiCGStab:  Solving for Ux, Initial residual = 0.0407833, Final residual = 0.00387841, No Iterations 5
DILUPBiCGStab:  Solving for Uy, Initial residual = 0.185786, Final residual = 0.0130652, No Iterations 5
DILUPBiCGStab:  Solving for Uz, Initial residual = 0.693236, Final residual = 0.0368763, No Iterations 5
[INFO] MomentumPredictor: 3927.51 [ms]
[INFO] MatrixAssemblyPI: 574.768 [ms]
[INFO] AdjustPhi: 25.078 [ms]
[INFO] ConstrainPressure: 0.003 [ms]
[INFO] MatrixAssemblyPII: 165.38 [ms]
nonePCG:  Solving for p, Initial residual = 0.967483, Final residual = 9.90448e-05, No Iterations 3071
[INFO] SolveP: 194153 [ms]
time step continuity errors : sum local = 2.49305e-08, global = 9.40437e-22, cumulative = 6.10759e-21
[INFO] ContinuityError: 58.079 [ms]
[INFO] CorrectBoundary: 0.851 [ms]
[INFO] PISOStep: 195166 [ms]
[INFO] MatrixAssemblyPI: 559.204 [ms]
[INFO] AdjustPhi: 24.078 [ms]
[INFO] ConstrainPressure: 0.002 [ms]
[INFO] MatrixAssemblyPII: 164.717 [ms]
nonePCG:  Solving for p, Initial residual = 0.903731, Final residual = 9.96415e-05, No Iterations 3068
[INFO] SolveP: 194334 [ms]
time step continuity errors : sum local = 2.54182e-08, global = 5.84203e-22, cumulative = 6.69179e-21
[INFO] ContinuityError: 60.432 [ms]
[INFO] CorrectBoundary: 0.711 [ms]
[INFO] PISOStep: 195332 [ms]
[INFO] TimeStep: 394997 [ms]
ExecutionTime = 3383.8 s  ClockTime = 3401 s

Time = 0.001375

Courant Number mean: 0.0347058 max: 0.825583
[INFO] MatrixAssemblyU: 504.631 [ms]
DILUPBiCGStab:  Solving for Ux, Initial residual = 0.0435225, Final residual = 0.00371004, No Iterations 5
DILUPBiCGStab:  Solving for Uy, Initial residual = 0.20941, Final residual = 0.0140914, No Iterations 5
DILUPBiCGStab:  Solving for Uz, Initial residual = 0.706651, Final residual = 0.0361762, No Iterations 5
[INFO] MomentumPredictor: 3931 [ms]
[INFO] MatrixAssemblyPI: 574.161 [ms]
[INFO] AdjustPhi: 26.219 [ms]
[INFO] ConstrainPressure: 0.005 [ms]
[INFO] MatrixAssemblyPII: 166.642 [ms]
nonePCG:  Solving for p, Initial residual = 0.973063, Final residual = 9.87257e-05, No Iterations 3070
[INFO] SolveP: 194641 [ms]
time step continuity errors : sum local = 2.884e-08, global = 1.15883e-21, cumulative = 7.85062e-21
[INFO] ContinuityError: 58.396 [ms]
[INFO] CorrectBoundary: 0.874 [ms]
[INFO] PISOStep: 195657 [ms]
[INFO] MatrixAssemblyPI: 558.132 [ms]
[INFO] AdjustPhi: 24.933 [ms]
[INFO] ConstrainPressure: 0.003 [ms]
[INFO] MatrixAssemblyPII: 165.224 [ms]
nonePCG:  Solving for p, Initial residual = 0.919443, Final residual = 9.80117e-05, No Iterations 3068
[INFO] SolveP: 194241 [ms]
time step continuity errors : sum local = 2.86516e-08, global = 3.26265e-22, cumulative = 8.17689e-21
[INFO] ContinuityError: 60.004 [ms]
[INFO] CorrectBoundary: 0.743 [ms]
[INFO] PISOStep: 195238 [ms]
[INFO] TimeStep: 395394 [ms]
ExecutionTime = 3777.17 s  ClockTime = 3796 s

Time = 0.0015

Courant Number mean: 0.0359049 max: 0.59756
[INFO] MatrixAssemblyU: 507.506 [ms]
DILUPBiCGStab:  Solving for Ux, Initial residual = 0.0489526, Final residual = 0.00391311, No Iterations 5
DILUPBiCGStab:  Solving for Uy, Initial residual = 0.213716, Final residual = 0.0129345, No Iterations 5
DILUPBiCGStab:  Solving for Uz, Initial residual = 0.710305, Final residual = 0.0357474, No Iterations 5
[INFO] MomentumPredictor: 3927.37 [ms]
[INFO] MatrixAssemblyPI: 574.618 [ms]
[INFO] AdjustPhi: 24.93 [ms]
[INFO] ConstrainPressure: 0.004 [ms]
[INFO] MatrixAssemblyPII: 166.345 [ms]
nonePCG:  Solving for p, Initial residual = 0.973312, Final residual = 9.89512e-05, No Iterations 3071
[INFO] SolveP: 194263 [ms]
time step continuity errors : sum local = 3.39013e-08, global = -1.535e-22, cumulative = 8.02339e-21
[INFO] ContinuityError: 59.322 [ms]
[INFO] CorrectBoundary: 1.191 [ms]
[INFO] PISOStep: 195276 [ms]
[INFO] MatrixAssemblyPI: 559.221 [ms]
[INFO] AdjustPhi: 23.685 [ms]
[INFO] ConstrainPressure: 0.003 [ms]
[INFO] MatrixAssemblyPII: 161.713 [ms]
nonePCG:  Solving for p, Initial residual = 0.908595, Final residual = 9.84271e-05, No Iterations 3068
[INFO] SolveP: 194378 [ms]
time step continuity errors : sum local = 3.41327e-08, global = 5.79944e-22, cumulative = 8.60333e-21
[INFO] ContinuityError: 64.009 [ms]
[INFO] CorrectBoundary: 1.057 [ms]
[INFO] PISOStep: 195393 [ms]
[INFO] TimeStep: 395166 [ms]
ExecutionTime = 4170.35 s  ClockTime = 4191 s

Time = 0.001625

Courant Number mean: 0.0373991 max: 1.14776
[INFO] MatrixAssemblyU: 505.405 [ms]
DILUPBiCGStab:  Solving for Ux, Initial residual = 0.0535678, Final residual = 0.0038525, No Iterations 5
DILUPBiCGStab:  Solving for Uy, Initial residual = 0.24205, Final residual = 0.0142158, No Iterations 5
DILUPBiCGStab:  Solving for Uz, Initial residual = 0.72225, Final residual = 0.0354793, No Iterations 5
[INFO] MomentumPredictor: 3931.38 [ms]
[INFO] MatrixAssemblyPI: 574.762 [ms]
[INFO] AdjustPhi: 24.817 [ms]
[INFO] ConstrainPressure: 0.003 [ms]
[INFO] MatrixAssemblyPII: 166.48 [ms]
nonePCG:  Solving for p, Initial residual = 0.976875, Final residual = 9.90075e-05, No Iterations 3071
[INFO] SolveP: 194749 [ms]
time step continuity errors : sum local = 3.97435e-08, global = 1.76288e-21, cumulative = 1.03662e-20
[INFO] ContinuityError: 59.164 [ms]
[INFO] CorrectBoundary: 0.966 [ms]
[INFO] PISOStep: 195764 [ms]
[INFO] MatrixAssemblyPI: 558.554 [ms]
[INFO] AdjustPhi: 25.072 [ms]
[INFO] ConstrainPressure: 0.003 [ms]
[INFO] MatrixAssemblyPII: 163.344 [ms]
nonePCG:  Solving for p, Initial residual = 0.920235, Final residual = 9.88755e-05, No Iterations 3068
[INFO] SolveP: 194406 [ms]
time step continuity errors : sum local = 3.97891e-08, global = 3.2914e-22, cumulative = 1.06953e-20
[INFO] ContinuityError: 59.573 [ms]
[INFO] CorrectBoundary: 0.728 [ms]
[INFO] PISOStep: 195405 [ms]
[INFO] TimeStep: 395668 [ms]
ExecutionTime = 4564.02 s  ClockTime = 4587 s

Time = 0.00175

Courant Number mean: 0.0384608 max: 1.02094
[INFO] MatrixAssemblyU: 506.467 [ms]
DILUPBiCGStab:  Solving for Ux, Initial residual = 0.0615128, Final residual = 0.00415089, No Iterations 5
DILUPBiCGStab:  Solving for Uy, Initial residual = 0.252437, Final residual = 0.0135927, No Iterations 5
DILUPBiCGStab:  Solving for Uz, Initial residual = 0.726591, Final residual = 0.0352456, No Iterations 5
[INFO] MomentumPredictor: 3929.92 [ms]
[INFO] MatrixAssemblyPI: 574.848 [ms]
[INFO] AdjustPhi: 24.765 [ms]
[INFO] ConstrainPressure: 0.002 [ms]
[INFO] MatrixAssemblyPII: 166.435 [ms]
nonePCG:  Solving for p, Initial residual = 0.977565, Final residual = 9.89368e-05, No Iterations 3073
[INFO] SolveP: 194639 [ms]
time step continuity errors : sum local = 4.68174e-08, global = 3.05317e-22, cumulative = 1.10007e-20
[INFO] ContinuityError: 59.191 [ms]
[INFO] CorrectBoundary: 1.167 [ms]
[INFO] PISOStep: 195653 [ms]
[INFO] MatrixAssemblyPI: 556.926 [ms]
[INFO] AdjustPhi: 26.351 [ms]
[INFO] ConstrainPressure: 0.003 [ms]
[INFO] MatrixAssemblyPII: 163.004 [ms]
nonePCG:  Solving for p, Initial residual = 0.912677, Final residual = 9.88838e-05, No Iterations 3069
[INFO] SolveP: 194760 [ms]
time step continuity errors : sum local = 4.73116e-08, global = 1.81505e-22, cumulative = 1.11822e-20
[INFO] ContinuityError: 59.853 [ms]
[INFO] CorrectBoundary: 0.719 [ms]
[INFO] PISOStep: 195758 [ms]
[INFO] TimeStep: 395909 [ms]
ExecutionTime = 4957.92 s  ClockTime = 4983 s

Time = 0.001875

Courant Number mean: 0.0399244 max: 1.68239
[INFO] MatrixAssemblyU: 506.3 [ms]
DILUPBiCGStab:  Solving for Ux, Initial residual = 0.0684489, Final residual = 0.00423771, No Iterations 5
DILUPBiCGStab:  Solving for Uy, Initial residual = 0.284437, Final residual = 0.014974, No Iterations 5
DILUPBiCGStab:  Solving for Uz, Initial residual = 0.735167, Final residual = 0.0350324, No Iterations 5
[INFO] MomentumPredictor: 3928.14 [ms]
[INFO] MatrixAssemblyPI: 575.399 [ms]
[INFO] AdjustPhi: 25.117 [ms]
[INFO] ConstrainPressure: 0.003 [ms]
[INFO] MatrixAssemblyPII: 166.052 [ms]
nonePCG:  Solving for p, Initial residual = 0.979674, Final residual = 9.95827e-05, No Iterations 3074
[INFO] SolveP: 194721 [ms]
time step continuity errors : sum local = 5.5554e-08, global = -1.15802e-21, cumulative = 1.00242e-20
[INFO] ContinuityError: 63.756 [ms]
[INFO] CorrectBoundary: 0.881 [ms]
[INFO] PISOStep: 195765 [ms]
[INFO] MatrixAssemblyPI: 558.606 [ms]
[INFO] AdjustPhi: 24.91 [ms]
[INFO] ConstrainPressure: 0.002 [ms]
[INFO] MatrixAssemblyPII: 162.755 [ms]
nonePCG:  Solving for p, Initial residual = 0.920718, Final residual = 9.95267e-05, No Iterations 3070
[INFO] SolveP: 194400 [ms]
time step continuity errors : sum local = 5.57446e-08, global = 5.16193e-22, cumulative = 1.05403e-20
[INFO] ContinuityError: 64.387 [ms]
[INFO] CorrectBoundary: 0.772 [ms]
[INFO] PISOStep: 195432 [ms]
[INFO] TimeStep: 395693 [ms]
ExecutionTime = 5351.61 s  ClockTime = 5379 s

Time = 0.002

Courant Number mean: 0.0409188 max: 1.71627
[INFO] MatrixAssemblyU: 506.873 [ms]
DILUPBiCGStab:  Solving for Ux, Initial residual = 0.0798221, Final residual = 0.00465629, No Iterations 5
DILUPBiCGStab:  Solving for Uy, Initial residual = 0.301133, Final residual = 0.0148152, No Iterations 5
DILUPBiCGStab:  Solving for Uz, Initial residual = 0.738691, Final residual = 0.0348132, No Iterations 5
[INFO] MomentumPredictor: 3927.5 [ms]
[INFO] MatrixAssemblyPI: 575.104 [ms]
[INFO] AdjustPhi: 24.579 [ms]
[INFO] ConstrainPressure: 0.003 [ms]
[INFO] MatrixAssemblyPII: 165.955 [ms]
nonePCG:  Solving for p, Initial residual = 0.980794, Final residual = 9.92648e-05, No Iterations 3076
[INFO] SolveP: 194897 [ms]
time step continuity errors : sum local = 6.55577e-08, global = -5.05588e-22, cumulative = 1.00348e-20
[INFO] ContinuityError: 58.391 [ms]
[INFO] CorrectBoundary: 0.941 [ms]
[INFO] PISOStep: 195910 [ms]
[INFO] MatrixAssemblyPI: 557.747 [ms]
[INFO] AdjustPhi: 24.986 [ms]
[INFO] ConstrainPressure: 0.003 [ms]
[INFO] MatrixAssemblyPII: 162.564 [ms]
nonePCG:  Solving for p, Initial residual = 0.915706, Final residual = 9.91824e-05, No Iterations 3072
[INFO] SolveP: 195020 [ms]
time step continuity errors : sum local = 6.61751e-08, global = 1.99428e-22, cumulative = 1.02342e-20
[INFO] ContinuityError: 59.605 [ms]
[INFO] CorrectBoundary: 0.81 [ms]
[INFO] PISOStep: 196018 [ms]
[INFO] TimeStep: 396428 [ms]
ExecutionTime = 5746.02 s  ClockTime = 5775 s

Time = 0.002125

Courant Number mean: 0.0424197 max: 2.54795
[INFO] MatrixAssemblyU: 505.926 [ms]
DILUPBiCGStab:  Solving for Ux, Initial residual = 0.0897582, Final residual = 0.00491425, No Iterations 5
DILUPBiCGStab:  Solving for Uy, Initial residual = 0.336111, Final residual = 0.0162651, No Iterations 5
DILUPBiCGStab:  Solving for Uz, Initial residual = 0.744297, Final residual = 0.0346415, No Iterations 5
[INFO] MomentumPredictor: 3925.73 [ms]
[INFO] MatrixAssemblyPI: 575.259 [ms]
[INFO] AdjustPhi: 25.96 [ms]
[INFO] ConstrainPressure: 0.002 [ms]
[INFO] MatrixAssemblyPII: 166.368 [ms]
nonePCG:  Solving for p, Initial residual = 0.981868, Final residual = 9.91958e-05, No Iterations 3078
[INFO] SolveP: 195055 [ms]
time step continuity errors : sum local = 7.78227e-08, global = 9.77624e-22, cumulative = 1.12118e-20
[INFO] ContinuityError: 64.248 [ms]
[INFO] CorrectBoundary: 1.169 [ms]
[INFO] PISOStep: 196089 [ms]
[INFO] MatrixAssemblyPI: 557.83 [ms]
[INFO] AdjustPhi: 24.847 [ms]
[INFO] ConstrainPressure: 0.003 [ms]
[INFO] MatrixAssemblyPII: 162.737 [ms]
nonePCG:  Solving for p, Initial residual = 0.920741, Final residual = 9.97876e-05, No Iterations 3074
[INFO] SolveP: 194813 [ms]
time step continuity errors : sum local = 7.87099e-08, global = 4.75771e-22, cumulative = 1.16876e-20
[INFO] ContinuityError: 60.081 [ms]
[INFO] CorrectBoundary: 0.73 [ms]
[INFO] PISOStep: 195813 [ms]
[INFO] TimeStep: 396395 [ms]
ExecutionTime = 6140.4 s  ClockTime = 6171 s

Time = 0.00225

Courant Number mean: 0.0434264 max: 2.85581
[INFO] MatrixAssemblyU: 506.115 [ms]
DILUPBiCGStab:  Solving for Ux, Initial residual = 0.106055, Final residual = 0.00552217, No Iterations 5
DILUPBiCGStab:  Solving for Uy, Initial residual = 0.359034, Final residual = 0.0165091, No Iterations 5
DILUPBiCGStab:  Solving for Uz, Initial residual = 0.74675, Final residual = 0.034401, No Iterations 5
[INFO] MomentumPredictor: 3929.01 [ms]
[INFO] MatrixAssemblyPI: 575.338 [ms]
[INFO] AdjustPhi: 24.712 [ms]
[INFO] ConstrainPressure: 0.005 [ms]
[INFO] MatrixAssemblyPII: 166.153 [ms]
nonePCG:  Solving for p, Initial residual = 0.983071, Final residual = 9.93587e-05, No Iterations 3080
[INFO] SolveP: 195037 [ms]
time step continuity errors : sum local = 9.29579e-08, global = 2.45176e-21, cumulative = 1.41393e-20
[INFO] ContinuityError: 59.439 [ms]
[INFO] CorrectBoundary: 0.892 [ms]
[INFO] PISOStep: 196052 [ms]
[INFO] MatrixAssemblyPI: 558.074 [ms]
[INFO] AdjustPhi: 25.039 [ms]
[INFO] ConstrainPressure: 0.002 [ms]
[INFO] MatrixAssemblyPII: 161.877 [ms]
nonePCG:  Solving for p, Initial residual = 0.91775, Final residual = 9.88154e-05, No Iterations 3076
[INFO] SolveP: 194383 [ms]
time step continuity errors : sum local = 9.33471e-08, global = 7.53775e-22, cumulative = 1.48931e-20
[INFO] ContinuityError: 59.929 [ms]
[INFO] CorrectBoundary: 0.857 [ms]
[INFO] PISOStep: 195381 [ms]
[INFO] TimeStep: 395929 [ms]
ExecutionTime = 6534.33 s  ClockTime = 6567 s

Time = 0.002375

Courant Number mean: 0.0450474 max: 3.95853
[INFO] MatrixAssemblyU: 506.162 [ms]
DILUPBiCGStab:  Solving for Ux, Initial residual = 0.119843, Final residual = 0.00596963, No Iterations 5
DILUPBiCGStab:  Solving for Uy, Initial residual = 0.395366, Final residual = 0.0180063, No Iterations 5
DILUPBiCGStab:  Solving for Uz, Initial residual = 0.750426, Final residual = 0.034327, No Iterations 5
[INFO] MomentumPredictor: 3929.72 [ms]
[INFO] MatrixAssemblyPI: 574.433 [ms]
[INFO] AdjustPhi: 24.771 [ms]
[INFO] ConstrainPressure: 0.003 [ms]
[INFO] MatrixAssemblyPII: 166.248 [ms]
nonePCG:  Solving for p, Initial residual = 0.983506, Final residual = 9.93591e-05, No Iterations 3081
[INFO] SolveP: 195130 [ms]
time step continuity errors : sum local = 1.11275e-07, global = 2.42982e-21, cumulative = 1.73229e-20
[INFO] ContinuityError: 58.169 [ms]
[INFO] CorrectBoundary: 0.938 [ms]
[INFO] PISOStep: 196143 [ms]
[INFO] MatrixAssemblyPI: 557.575 [ms]
[INFO] AdjustPhi: 31.207 [ms]
[INFO] ConstrainPressure: 0.003 [ms]
[INFO] MatrixAssemblyPII: 164.701 [ms]
nonePCG:  Solving for p, Initial residual = 0.920962, Final residual = 9.86555e-05, No Iterations 3078
[INFO] SolveP: 194793 [ms]
time step continuity errors : sum local = 1.11205e-07, global = 2.95756e-22, cumulative = 1.76187e-20
[INFO] ContinuityError: 59.928 [ms]
[INFO] CorrectBoundary: 0.795 [ms]
[INFO] PISOStep: 195799 [ms]
[INFO] TimeStep: 396439 [ms]
ExecutionTime = 6928.77 s  ClockTime = 6964 s

Time = 0.0025

Courant Number mean: 0.0461741 max: 4.70254
[INFO] MatrixAssemblyU: 510.9 [ms]
DILUPBiCGStab:  Solving for Ux, Initial residual = 0.142782, Final residual = 0.00684467, No Iterations 5
DILUPBiCGStab:  Solving for Uy, Initial residual = 0.422909, Final residual = 0.0185724, No Iterations 5
DILUPBiCGStab:  Solving for Uz, Initial residual = 0.751783, Final residual = 0.0340666, No Iterations 5
[INFO] MomentumPredictor: 3928.66 [ms]
[INFO] MatrixAssemblyPI: 574.543 [ms]
[INFO] AdjustPhi: 26.003 [ms]
[INFO] ConstrainPressure: 0.004 [ms]
[INFO] MatrixAssemblyPII: 166.372 [ms]
nonePCG:  Solving for p, Initial residual = 0.984379, Final residual = 9.91511e-05, No Iterations 3083
[INFO] SolveP: 195279 [ms]
time step continuity errors : sum local = 1.33314e-07, global = 3.06004e-21, cumulative = 2.06787e-20
[INFO] ContinuityError: 58.701 [ms]
[INFO] CorrectBoundary: 1.061 [ms]
[INFO] PISOStep: 196294 [ms]
[INFO] MatrixAssemblyPI: 556.941 [ms]
[INFO] AdjustPhi: 26.459 [ms]
[INFO] ConstrainPressure: 0.003 [ms]
[INFO] MatrixAssemblyPII: 164.205 [ms]
nonePCG:  Solving for p, Initial residual = 0.919102, Final residual = 9.84719e-05, No Iterations 3080
[INFO] SolveP: 194822 [ms]
time step continuity errors : sum local = 1.33655e-07, global = -5.86381e-22, cumulative = 2.00923e-20
[INFO] ContinuityError: 59.481 [ms]
[INFO] CorrectBoundary: 0.737 [ms]
[INFO] PISOStep: 195819 [ms]
[INFO] TimeStep: 396614 [ms]
ExecutionTime = 7323.36 s  ClockTime = 7360 s

End

Finalising parallel run
