/*---------------------------------------------------------------------------*\
| =========                 |                                                 |
| \\      /  F ield         | OpenFOAM: The Open Source CFD Toolbox           |
|  \\    /   O peration     | Version:  2306                                  |
|   \\  /    A nd           | Website:  www.openfoam.com                      |
|    \\/     M anipulation  |                                                 |
\*---------------------------------------------------------------------------*/
Build  : a6e826bd55-20230630 OPENFOAM=2306 version=v2306
Arch   : "LSB;label=32;scalar=64"
Exec   : icoFoam -parallel -case /tmp/lidDrivenCavity/workspace/28783eb53b39b003116d451fa7c7ba92/case
Date   : Dec 20 2023
Time   : 23:27:01
Host   : nla-gpu2.ianm.kit.edu
PID    : 387426
I/O    : uncollated
Case   : /tmp/lidDrivenCavity/workspace/28783eb53b39b003116d451fa7c7ba92/case
nProcs : 16
Hosts  :
(
    (nla-gpu2.ianm.kit.edu 16)
)
Pstream initialized with:
    floatTransfer      : false
    nProcsSimpleSum    : 0
    nonBlockingExchange: 0 (tuning: 0)
    exchange algorithm : -1
    commsType          : nonBlocking
    polling iterations : 0
trapFpe: Floating point exception trapping enabled (FOAM_SIGFPE).
fileModificationChecking : Monitoring run-time modified files using timeStampMaster (fileModificationSkew 5, maxFileModificationPolls 20)
allowSystemOperations : Allowing user-supplied system call operations

// * * * * * * * * * * * * * * * * * * * * * * * * * * * * * * * * * * * * * //
Create time

--> FOAM Warning : 
    From void* Foam::dlLibraryTable::openLibrary(const Foam::fileName&, bool)
    in file db/dynamicLibrary/dlLibraryTable/dlLibraryTable.C at line 188
    Could not load "libpetscFoam.so"
libpetscFoam.so: cannot open shared object file: No such file or directory
Create mesh for time = 0


PISO: Operating solver in PISO mode

Reading transportProperties

Reading field p

Reading field U

Reading/calculating face flux field phi


Starting time loop

Time = 0.00025

Courant Number mean: 8.24341e-18 max: 2.08167e-14
[INFO] MatrixAssemblyU: 70.293 [ms]
DILUPBiCGStab:  Solving for Ux, Initial residual = 1, Final residual = 0.00994539, No Iterations 5
DILUPBiCGStab:  Solving for Uy:  solution singularity
DILUPBiCGStab:  Solving for Uz:  solution singularity
[INFO] MomentumPredictor: 285.691 [ms]
[INFO] MatrixAssemblyPI: 70.584 [ms]
[INFO] AdjustPhi: 5.046 [ms]
[INFO] ConstrainPressure: 0.013 [ms]
[INFO] MatrixAssemblyPII: 20.024 [ms]
GAMG:  Solving for p, Initial residual = 1, Final residual = 9.79867e-05, No Iterations 29
[INFO] SolveP: 1546.91 [ms]
time step continuity errors : sum local = 7.53028e-09, global = -3.51402e-21, cumulative = -3.51402e-21
[INFO] ContinuityError: 8.591 [ms]
[INFO] CorrectBoundary: 0.22 [ms]
[INFO] PISOStep: 1677.61 [ms]
[INFO] MatrixAssemblyPI: 66.538 [ms]
[INFO] AdjustPhi: 6.499 [ms]
[INFO] ConstrainPressure: 0.004 [ms]
[INFO] MatrixAssemblyPII: 20.293 [ms]
GAMG:  Solving for p, Initial residual = 0.786399, Final residual = 9.58387e-05, No Iterations 29
[INFO] SolveP: 1416.87 [ms]
time step continuity errors : sum local = 9.23324e-09, global = 7.70674e-22, cumulative = -2.74334e-21
[INFO] ContinuityError: 7.357 [ms]
[INFO] CorrectBoundary: 0.24 [ms]
[INFO] PISOStep: 1544.47 [ms]
[INFO] TimeStep: 3588.44 [ms]
ExecutionTime = 4.14 s  ClockTime = 4 s

Time = 0.0005

Courant Number mean: 0.015946 max: 0.41255
[INFO] MatrixAssemblyU: 62.241 [ms]
DILUPBiCGStab:  Solving for Ux, Initial residual = 0.129578, Final residual = 0.00549915, No Iterations 5
DILUPBiCGStab:  Solving for Uy, Initial residual = 0.426974, Final residual = 0.0140639, No Iterations 5
DILUPBiCGStab:  Solving for Uz, Initial residual = 0.984544, Final residual = 0.036337, No Iterations 5
[INFO] MomentumPredictor: 499.556 [ms]
[INFO] MatrixAssemblyPI: 65.741 [ms]
[INFO] AdjustPhi: 7.23 [ms]
[INFO] ConstrainPressure: 0.004 [ms]
[INFO] MatrixAssemblyPII: 20.107 [ms]
GAMG:  Solving for p, Initial residual = 0.82519, Final residual = 8.72981e-05, No Iterations 26
[INFO] SolveP: 1262.82 [ms]
time step continuity errors : sum local = 1.29038e-08, global = -1.62494e-21, cumulative = -4.36829e-21
[INFO] ContinuityError: 7.468 [ms]
[INFO] CorrectBoundary: 0.238 [ms]
[INFO] PISOStep: 1389.05 [ms]
[INFO] MatrixAssemblyPI: 65.772 [ms]
[INFO] AdjustPhi: 4.883 [ms]
[INFO] ConstrainPressure: 0.006 [ms]
[INFO] MatrixAssemblyPII: 19.942 [ms]
GAMG:  Solving for p, Initial residual = 0.768331, Final residual = 7.61867e-05, No Iterations 27
[INFO] SolveP: 1327.16 [ms]
time step continuity errors : sum local = 1.14316e-08, global = -7.74396e-22, cumulative = -5.14269e-21
[INFO] ContinuityError: 7.139 [ms]
[INFO] CorrectBoundary: 0.349 [ms]
[INFO] PISOStep: 1450.43 [ms]
[INFO] TimeStep: 3409.34 [ms]
ExecutionTime = 7.53 s  ClockTime = 7 s

Time = 0.00075

Courant Number mean: 0.0243301 max: 0.472023
[INFO] MatrixAssemblyU: 61.195 [ms]
DILUPBiCGStab:  Solving for Ux, Initial residual = 0.0547714, Final residual = 0.00187196, No Iterations 5
DILUPBiCGStab:  Solving for Uy, Initial residual = 0.182216, Final residual = 0.00762616, No Iterations 5
DILUPBiCGStab:  Solving for Uz, Initial residual = 0.818202, Final residual = 0.0302568, No Iterations 5
[INFO] MomentumPredictor: 492.624 [ms]
[INFO] MatrixAssemblyPI: 67.276 [ms]
[INFO] AdjustPhi: 4.952 [ms]
[INFO] ConstrainPressure: 0.005 [ms]
[INFO] MatrixAssemblyPII: 19.958 [ms]
GAMG:  Solving for p, Initial residual = 0.849503, Final residual = 6.44166e-05, No Iterations 28
[INFO] SolveP: 1360.6 [ms]
time step continuity errors : sum local = 8.67537e-09, global = -4.15555e-22, cumulative = -5.55824e-21
[INFO] ContinuityError: 9.866 [ms]
[INFO] CorrectBoundary: 0.291 [ms]
[INFO] PISOStep: 1489.01 [ms]
[INFO] MatrixAssemblyPI: 65.878 [ms]
[INFO] AdjustPhi: 4.913 [ms]
[INFO] ConstrainPressure: 0.004 [ms]
[INFO] MatrixAssemblyPII: 19.975 [ms]
GAMG:  Solving for p, Initial residual = 0.815979, Final residual = 7.64996e-05, No Iterations 30
[INFO] SolveP: 1450.68 [ms]
time step continuity errors : sum local = 1.00813e-08, global = -1.25675e-21, cumulative = -6.81499e-21
[INFO] ContinuityError: 7.349 [ms]
[INFO] CorrectBoundary: 0.309 [ms]
[INFO] PISOStep: 1573.44 [ms]
[INFO] TimeStep: 3624.7 [ms]
ExecutionTime = 11.14 s  ClockTime = 11 s

Time = 0.001

Courant Number mean: 0.0291964 max: 0.467803
[INFO] MatrixAssemblyU: 60.371 [ms]
DILUPBiCGStab:  Solving for Ux, Initial residual = 0.0346968, Final residual = 0.00124202, No Iterations 5
DILUPBiCGStab:  Solving for Uy, Initial residual = 0.129112, Final residual = 0.00473228, No Iterations 5
DILUPBiCGStab:  Solving for Uz, Initial residual = 0.654323, Final residual = 0.0214603, No Iterations 5
[INFO] MomentumPredictor: 492.694 [ms]
[INFO] MatrixAssemblyPI: 68.572 [ms]
[INFO] AdjustPhi: 3.631 [ms]
[INFO] ConstrainPressure: 0.004 [ms]
[INFO] MatrixAssemblyPII: 19.97 [ms]
GAMG:  Solving for p, Initial residual = 0.770979, Final residual = 9.14476e-05, No Iterations 18
[INFO] SolveP: 880.572 [ms]
time step continuity errors : sum local = 1.12228e-08, global = -6.21833e-22, cumulative = -7.43682e-21
[INFO] ContinuityError: 7.232 [ms]
[INFO] CorrectBoundary: 0.299 [ms]
[INFO] PISOStep: 1005.95 [ms]
[INFO] MatrixAssemblyPI: 66.049 [ms]
[INFO] AdjustPhi: 4.721 [ms]
[INFO] ConstrainPressure: 0.004 [ms]
[INFO] MatrixAssemblyPII: 19.38 [ms]
GAMG:  Solving for p, Initial residual = 0.708334, Final residual = 8.868e-05, No Iterations 20
[INFO] SolveP: 983.923 [ms]
time step continuity errors : sum local = 1.10588e-08, global = -1.44322e-21, cumulative = -8.88004e-21
[INFO] ContinuityError: 7.813 [ms]
[INFO] CorrectBoundary: 0.334 [ms]
[INFO] PISOStep: 1107.43 [ms]
[INFO] TimeStep: 2674.91 [ms]
ExecutionTime = 13.8 s  ClockTime = 13 s

Time = 0.00125

Courant Number mean: 0.0333388 max: 0.472949
[INFO] MatrixAssemblyU: 61.772 [ms]
DILUPBiCGStab:  Solving for Ux, Initial residual = 0.0271358, Final residual = 0.00090271, No Iterations 5
DILUPBiCGStab:  Solving for Uy, Initial residual = 0.081374, Final residual = 0.00356563, No Iterations 5
DILUPBiCGStab:  Solving for Uz, Initial residual = 0.560863, Final residual = 0.0237886, No Iterations 5
[INFO] MomentumPredictor: 490.78 [ms]
[INFO] MatrixAssemblyPI: 67.15 [ms]
[INFO] AdjustPhi: 4.888 [ms]
[INFO] ConstrainPressure: 0.004 [ms]
[INFO] MatrixAssemblyPII: 20.092 [ms]
GAMG:  Solving for p, Initial residual = 0.77662, Final residual = 9.759e-05, No Iterations 24
[INFO] SolveP: 1170.9 [ms]
time step continuity errors : sum local = 9.95114e-09, global = 1.74664e-21, cumulative = -7.1334e-21
[INFO] ContinuityError: 7.603 [ms]
[INFO] CorrectBoundary: 0.721 [ms]
[INFO] PISOStep: 1295.73 [ms]
[INFO] MatrixAssemblyPI: 66.816 [ms]
[INFO] AdjustPhi: 4.852 [ms]
[INFO] ConstrainPressure: 0.004 [ms]
[INFO] MatrixAssemblyPII: 20.096 [ms]
GAMG:  Solving for p, Initial residual = 0.725817, Final residual = 8.52453e-05, No Iterations 22
[INFO] SolveP: 1069.89 [ms]
time step continuity errors : sum local = 8.53645e-09, global = -7.68864e-22, cumulative = -7.90226e-21
[INFO] ContinuityError: 7.311 [ms]
[INFO] CorrectBoundary: 0.25 [ms]
[INFO] PISOStep: 1194.35 [ms]
[INFO] TimeStep: 3050.97 [ms]
ExecutionTime = 16.84 s  ClockTime = 17 s

Time = 0.0015

Courant Number mean: 0.0366394 max: 0.475603
[INFO] MatrixAssemblyU: 61.494 [ms]
DILUPBiCGStab:  Solving for Ux, Initial residual = 0.0204312, Final residual = 0.000644974, No Iterations 5
DILUPBiCGStab:  Solving for Uy, Initial residual = 0.0658627, Final residual = 0.00245015, No Iterations 5
DILUPBiCGStab:  Solving for Uz, Initial residual = 0.428358, Final residual = 0.0174703, No Iterations 5
[INFO] MomentumPredictor: 491.744 [ms]
[INFO] MatrixAssemblyPI: 67.289 [ms]
[INFO] AdjustPhi: 4.662 [ms]
[INFO] ConstrainPressure: 0.007 [ms]
[INFO] MatrixAssemblyPII: 20.088 [ms]
GAMG:  Solving for p, Initial residual = 0.684031, Final residual = 8.82946e-05, No Iterations 18
[INFO] SolveP: 886.119 [ms]
time step continuity errors : sum local = 8.27119e-09, global = -2.37633e-21, cumulative = -1.02786e-20
[INFO] ContinuityError: 7.82 [ms]
[INFO] CorrectBoundary: 0.325 [ms]
[INFO] PISOStep: 1010.48 [ms]
[INFO] MatrixAssemblyPI: 66.182 [ms]
[INFO] AdjustPhi: 4.62 [ms]
[INFO] ConstrainPressure: 0.004 [ms]
[INFO] MatrixAssemblyPII: 19.961 [ms]
GAMG:  Solving for p, Initial residual = 0.623667, Final residual = 6.822e-05, No Iterations 22
[INFO] SolveP: 1067.91 [ms]
time step continuity errors : sum local = 6.40648e-09, global = -3.15936e-21, cumulative = -1.3438e-20
[INFO] ContinuityError: 7.232 [ms]
[INFO] CorrectBoundary: 0.349 [ms]
[INFO] PISOStep: 1190.31 [ms]
[INFO] TimeStep: 2762.18 [ms]
ExecutionTime = 19.58 s  ClockTime = 19 s

Time = 0.00175

Courant Number mean: 0.039555 max: 0.477547
[INFO] MatrixAssemblyU: 60.359 [ms]
DILUPBiCGStab:  Solving for Ux, Initial residual = 0.0174476, Final residual = 0.0005135, No Iterations 5
DILUPBiCGStab:  Solving for Uy, Initial residual = 0.0490013, Final residual = 0.00179609, No Iterations 5
DILUPBiCGStab:  Solving for Uz, Initial residual = 0.341165, Final residual = 0.0158831, No Iterations 5
[INFO] MomentumPredictor: 492.078 [ms]
[INFO] MatrixAssemblyPI: 67.318 [ms]
[INFO] AdjustPhi: 4.662 [ms]
[INFO] ConstrainPressure: 0.006 [ms]
[INFO] MatrixAssemblyPII: 20.105 [ms]
GAMG:  Solving for p, Initial residual = 0.679786, Final residual = 8.06684e-05, No Iterations 21
[INFO] SolveP: 1019.18 [ms]
time step continuity errors : sum local = 6.29452e-09, global = -3.13504e-21, cumulative = -1.6573e-20
[INFO] ContinuityError: 7.386 [ms]
[INFO] CorrectBoundary: 0.371 [ms]
[INFO] PISOStep: 1143.24 [ms]
[INFO] MatrixAssemblyPI: 66.074 [ms]
[INFO] AdjustPhi: 4.339 [ms]
[INFO] ConstrainPressure: 0.004 [ms]
[INFO] MatrixAssemblyPII: 19.914 [ms]
GAMG:  Solving for p, Initial residual = 0.620706, Final residual = 8.58569e-05, No Iterations 23
[INFO] SolveP: 1117.84 [ms]
time step continuity errors : sum local = 6.66285e-09, global = -1.29177e-21, cumulative = -1.78648e-20
[INFO] ContinuityError: 7.43 [ms]
[INFO] CorrectBoundary: 0.223 [ms]
[INFO] PISOStep: 1241.03 [ms]
[INFO] TimeStep: 2944.7 [ms]
ExecutionTime = 22.53 s  ClockTime = 22 s

Time = 0.002

Courant Number mean: 0.0420796 max: 0.479237
[INFO] MatrixAssemblyU: 61.445 [ms]
DILUPBiCGStab:  Solving for Ux, Initial residual = 0.0142969, Final residual = 0.000394596, No Iterations 5
DILUPBiCGStab:  Solving for Uy, Initial residual = 0.0417652, Final residual = 0.00138504, No Iterations 5
DILUPBiCGStab:  Solving for Uz, Initial residual = 0.266267, Final residual = 0.0115295, No Iterations 5
[INFO] MomentumPredictor: 489.906 [ms]
[INFO] MatrixAssemblyPI: 67.339 [ms]
[INFO] AdjustPhi: 4.624 [ms]
[INFO] ConstrainPressure: 0.004 [ms]
[INFO] MatrixAssemblyPII: 20.018 [ms]
GAMG:  Solving for p, Initial residual = 0.588949, Final residual = 7.63067e-05, No Iterations 21
[INFO] SolveP: 1013.67 [ms]
time step continuity errors : sum local = 5.66145e-09, global = -2.33063e-21, cumulative = -2.01954e-20
[INFO] ContinuityError: 6.666 [ms]
[INFO] CorrectBoundary: 0.403 [ms]
[INFO] PISOStep: 1137.68 [ms]
[INFO] MatrixAssemblyPI: 65.903 [ms]
[INFO] AdjustPhi: 4.107 [ms]
[INFO] ConstrainPressure: 0.004 [ms]
[INFO] MatrixAssemblyPII: 19.903 [ms]
GAMG:  Solving for p, Initial residual = 0.531832, Final residual = 6.83092e-05, No Iterations 24
[INFO] SolveP: 1174.43 [ms]
time step continuity errors : sum local = 5.05555e-09, global = -3.30821e-22, cumulative = -2.05262e-20
[INFO] ContinuityError: 8.014 [ms]
[INFO] CorrectBoundary: 0.297 [ms]
[INFO] PISOStep: 1298.45 [ms]
[INFO] TimeStep: 2995.57 [ms]
ExecutionTime = 25.5 s  ClockTime = 25 s

Time = 0.00225

Courant Number mean: 0.0443654 max: 0.480386
[INFO] MatrixAssemblyU: 60.206 [ms]
DILUPBiCGStab:  Solving for Ux, Initial residual = 0.0125732, Final residual = 0.000325563, No Iterations 5
DILUPBiCGStab:  Solving for Uy, Initial residual = 0.0336539, Final residual = 0.000984328, No Iterations 5
DILUPBiCGStab:  Solving for Uz, Initial residual = 0.220679, Final residual = 0.0109745, No Iterations 5
[INFO] MomentumPredictor: 495.435 [ms]
[INFO] MatrixAssemblyPI: 66.081 [ms]
[INFO] AdjustPhi: 6.092 [ms]
[INFO] ConstrainPressure: 0.006 [ms]
[INFO] MatrixAssemblyPII: 19.659 [ms]
GAMG:  Solving for p, Initial residual = 0.575964, Final residual = 8.95985e-05, No Iterations 24
[INFO] SolveP: 1160.94 [ms]
time step continuity errors : sum local = 5.77474e-09, global = -4.25155e-21, cumulative = -2.47778e-20
[INFO] ContinuityError: 7.155 [ms]
[INFO] CorrectBoundary: 0.461 [ms]
[INFO] PISOStep: 1284.99 [ms]
[INFO] MatrixAssemblyPI: 65.49 [ms]
[INFO] AdjustPhi: 4.554 [ms]
[INFO] ConstrainPressure: 0.004 [ms]
[INFO] MatrixAssemblyPII: 19.891 [ms]
GAMG:  Solving for p, Initial residual = 0.515644, Final residual = 9.73456e-05, No Iterations 27
[INFO] SolveP: 1304.73 [ms]
time step continuity errors : sum local = 6.26227e-09, global = -4.33019e-21, cumulative = -2.9108e-20
[INFO] ContinuityError: 7.368 [ms]
[INFO] CorrectBoundary: 0.344 [ms]
[INFO] PISOStep: 1426.68 [ms]
[INFO] TimeStep: 3275.94 [ms]
ExecutionTime = 28.77 s  ClockTime = 29 s

Time = 0.0025

Courant Number mean: 0.0464195 max: 0.481483
[INFO] MatrixAssemblyU: 60.245 [ms]
DILUPBiCGStab:  Solving for Ux, Initial residual = 0.0108271, Final residual = 0.000262357, No Iterations 5
DILUPBiCGStab:  Solving for Uy, Initial residual = 0.0294868, Final residual = 0.000804489, No Iterations 5
DILUPBiCGStab:  Solving for Uz, Initial residual = 0.187658, Final residual = 0.00925905, No Iterations 5
[INFO] MomentumPredictor: 492.675 [ms]
[INFO] MatrixAssemblyPI: 67.4 [ms]
[INFO] AdjustPhi: 4.566 [ms]
[INFO] ConstrainPressure: 0.006 [ms]
[INFO] MatrixAssemblyPII: 19.962 [ms]
GAMG:  Solving for p, Initial residual = 0.499867, Final residual = 7.02231e-05, No Iterations 29
[INFO] SolveP: 1395.98 [ms]
time step continuity errors : sum local = 4.38222e-09, global = -4.05972e-21, cumulative = -3.31677e-20
[INFO] ContinuityError: 7.79 [ms]
[INFO] CorrectBoundary: 0.239 [ms]
[INFO] PISOStep: 1521.06 [ms]
[INFO] MatrixAssemblyPI: 65.835 [ms]
[INFO] AdjustPhi: 4.247 [ms]
[INFO] ConstrainPressure: 0.004 [ms]
[INFO] MatrixAssemblyPII: 19.976 [ms]
GAMG:  Solving for p, Initial residual = 0.447579, Final residual = 8.3965e-05, No Iterations 23
[INFO] SolveP: 1123.71 [ms]
time step continuity errors : sum local = 5.22356e-09, global = -9.12509e-22, cumulative = -3.40802e-20
[INFO] ContinuityError: 7.565 [ms]
[INFO] CorrectBoundary: 1.004 [ms]
[INFO] PISOStep: 1246.57 [ms]
[INFO] TimeStep: 3328.76 [ms]
ExecutionTime = 32.08 s  ClockTime = 32 s

Time = 0.00275

Courant Number mean: 0.0483079 max: 0.482263
[INFO] MatrixAssemblyU: 58.845 [ms]
DILUPBiCGStab:  Solving for Ux, Initial residual = 0.00969339, Final residual = 0.000220323, No Iterations 5
DILUPBiCGStab:  Solving for Uy, Initial residual = 0.0249688, Final residual = 0.00058503, No Iterations 5
DILUPBiCGStab:  Solving for Uz, Initial residual = 0.157136, Final residual = 0.00818984, No Iterations 5
[INFO] MomentumPredictor: 500.737 [ms]
[INFO] MatrixAssemblyPI: 67.826 [ms]
[INFO] AdjustPhi: 5.071 [ms]
[INFO] ConstrainPressure: 0.005 [ms]
[INFO] MatrixAssemblyPII: 20.021 [ms]
GAMG:  Solving for p, Initial residual = 0.475367, Final residual = 9.40969e-05, No Iterations 28
[INFO] SolveP: 1355.63 [ms]
time step continuity errors : sum local = 5.32118e-09, global = -2.09178e-21, cumulative = -3.6172e-20
[INFO] ContinuityError: 7.828 [ms]
[INFO] CorrectBoundary: 0.352 [ms]
[INFO] PISOStep: 1480.89 [ms]
[INFO] MatrixAssemblyPI: 65.34 [ms]
[INFO] AdjustPhi: 4.839 [ms]
[INFO] ConstrainPressure: 0.004 [ms]
[INFO] MatrixAssemblyPII: 19.812 [ms]
GAMG:  Solving for p, Initial residual = 0.421489, Final residual = 9.01206e-05, No Iterations 35
[INFO] SolveP: 1685.76 [ms]
time step continuity errors : sum local = 5.08969e-09, global = -4.18135e-21, cumulative = -4.03533e-20
[INFO] ContinuityError: 7.306 [ms]
[INFO] CorrectBoundary: 0.36 [ms]
[INFO] PISOStep: 1807.85 [ms]
[INFO] TimeStep: 3856.42 [ms]
ExecutionTime = 35.91 s  ClockTime = 36 s

Time = 0.003

Courant Number mean: 0.0500407 max: 0.483041
[INFO] MatrixAssemblyU: 60.29 [ms]
DILUPBiCGStab:  Solving for Ux, Initial residual = 0.0086086, Final residual = 0.000183926, No Iterations 5
DILUPBiCGStab:  Solving for Uy, Initial residual = 0.0223059, Final residual = 0.000482937, No Iterations 5
DILUPBiCGStab:  Solving for Uz, Initial residual = 0.135291, Final residual = 0.00698931, No Iterations 5
[INFO] MomentumPredictor: 494.87 [ms]
[INFO] MatrixAssemblyPI: 67.365 [ms]
[INFO] AdjustPhi: 4.568 [ms]
[INFO] ConstrainPressure: 0.007 [ms]
[INFO] MatrixAssemblyPII: 20.134 [ms]
GAMG:  Solving for p, Initial residual = 0.418647, Final residual = 9.36721e-05, No Iterations 24
[INFO] SolveP: 1155.52 [ms]
time step continuity errors : sum local = 5.14184e-09, global = -2.21038e-21, cumulative = -4.25637e-20
[INFO] ContinuityError: 7.271 [ms]
[INFO] CorrectBoundary: 0.415 [ms]
[INFO] PISOStep: 1279.35 [ms]
[INFO] MatrixAssemblyPI: 65.719 [ms]
[INFO] AdjustPhi: 4.413 [ms]
[INFO] ConstrainPressure: 0.004 [ms]
[INFO] MatrixAssemblyPII: 19.938 [ms]
GAMG:  Solving for p, Initial residual = 0.372363, Final residual = 9.83246e-05, No Iterations 24
[INFO] SolveP: 1162.62 [ms]
time step continuity errors : sum local = 5.37251e-09, global = -4.37491e-21, cumulative = -4.69386e-20
[INFO] ContinuityError: 7.425 [ms]
[INFO] CorrectBoundary: 0.384 [ms]
[INFO] PISOStep: 1284.67 [ms]
[INFO] TimeStep: 3127.55 [ms]
ExecutionTime = 39.03 s  ClockTime = 39 s

Time = 0.00325

Courant Number mean: 0.0516508 max: 0.483615
[INFO] MatrixAssemblyU: 60.251 [ms]
DILUPBiCGStab:  Solving for Ux, Initial residual = 0.0078082, Final residual = 0.000157009, No Iterations 5
DILUPBiCGStab:  Solving for Uy, Initial residual = 0.0195315, Final residual = 0.000373753, No Iterations 5
DILUPBiCGStab:  Solving for Uz, Initial residual = 0.1241, Final residual = 0.00681902, No Iterations 5
[INFO] MomentumPredictor: 492.319 [ms]
[INFO] MatrixAssemblyPI: 67.526 [ms]
[INFO] AdjustPhi: 4.503 [ms]
[INFO] ConstrainPressure: 0.009 [ms]
[INFO] MatrixAssemblyPII: 20.079 [ms]
GAMG:  Solving for p, Initial residual = 0.388558, Final residual = 9.13424e-05, No Iterations 30
[INFO] SolveP: 1444.77 [ms]
time step continuity errors : sum local = 4.67913e-09, global = -5.40123e-21, cumulative = -5.23399e-20
[INFO] ContinuityError: 7.678 [ms]
[INFO] CorrectBoundary: 0.607 [ms]
[INFO] PISOStep: 1569.6 [ms]
[INFO] MatrixAssemblyPI: 64.954 [ms]
[INFO] AdjustPhi: 6.002 [ms]
[INFO] ConstrainPressure: 0.004 [ms]
[INFO] MatrixAssemblyPII: 19.923 [ms]
GAMG:  Solving for p, Initial residual = 0.34267, Final residual = 9.31165e-05, No Iterations 24
[INFO] SolveP: 1164.88 [ms]
time step continuity errors : sum local = 4.7887e-09, global = -6.12098e-21, cumulative = -5.84608e-20
[INFO] ContinuityError: 7.353 [ms]
[INFO] CorrectBoundary: 0.266 [ms]
[INFO] PISOStep: 1287.7 [ms]
[INFO] TimeStep: 3418.01 [ms]
ExecutionTime = 42.44 s  ClockTime = 42 s

Time = 0.0035

Courant Number mean: 0.0531458 max: 0.484204
[INFO] MatrixAssemblyU: 60.295 [ms]
DILUPBiCGStab:  Solving for Ux, Initial residual = 0.00707977, Final residual = 0.000134886, No Iterations 5
DILUPBiCGStab:  Solving for Uy, Initial residual = 0.0177121, Final residual = 0.000308546, No Iterations 5
DILUPBiCGStab:  Solving for Uz, Initial residual = 0.105285, Final residual = 0.00542959, No Iterations 5
[INFO] MomentumPredictor: 491.363 [ms]
[INFO] MatrixAssemblyPI: 67.306 [ms]
[INFO] AdjustPhi: 4.708 [ms]
[INFO] ConstrainPressure: 0.006 [ms]
[INFO] MatrixAssemblyPII: 19.971 [ms]
GAMG:  Solving for p, Initial residual = 0.346595, Final residual = 9.81387e-05, No Iterations 35
[INFO] SolveP: 1697.65 [ms]
time step continuity errors : sum local = 4.88562e-09, global = 2.2109e-22, cumulative = -5.82397e-20
[INFO] ContinuityError: 7.806 [ms]
[INFO] CorrectBoundary: 0.302 [ms]
[INFO] PISOStep: 1822.32 [ms]
[INFO] MatrixAssemblyPI: 66.15 [ms]
[INFO] AdjustPhi: 4.494 [ms]
[INFO] ConstrainPressure: 0.005 [ms]
[INFO] MatrixAssemblyPII: 19.877 [ms]
GAMG:  Solving for p, Initial residual = 0.30726, Final residual = 9.14115e-05, No Iterations 27
[INFO] SolveP: 1305.19 [ms]
time step continuity errors : sum local = 4.52682e-09, global = -7.02199e-22, cumulative = -5.89419e-20
[INFO] ContinuityError: 7.382 [ms]
[INFO] CorrectBoundary: 0.365 [ms]
[INFO] PISOStep: 1427.65 [ms]
[INFO] TimeStep: 3809.99 [ms]
ExecutionTime = 46.23 s  ClockTime = 46 s

Time = 0.00375

Courant Number mean: 0.0545475 max: 0.484647
[INFO] MatrixAssemblyU: 60.21 [ms]
DILUPBiCGStab:  Solving for Ux, Initial residual = 0.00648818, Final residual = 0.000116821, No Iterations 5
DILUPBiCGStab:  Solving for Uy, Initial residual = 0.0158737, Final residual = 0.000257804, No Iterations 5
DILUPBiCGStab:  Solving for Uz, Initial residual = 0.0945876, Final residual = 0.00500148, No Iterations 5
[INFO] MomentumPredictor: 491.071 [ms]
[INFO] MatrixAssemblyPI: 67.173 [ms]
[INFO] AdjustPhi: 4.814 [ms]
[INFO] ConstrainPressure: 0.008 [ms]
[INFO] MatrixAssemblyPII: 19.992 [ms]
GAMG:  Solving for p, Initial residual = 0.314634, Final residual = 7.45877e-05, No Iterations 22
[INFO] SolveP: 1064.8 [ms]
time step continuity errors : sum local = 3.54797e-09, global = -1.63164e-21, cumulative = -6.05736e-20
[INFO] ContinuityError: 7.318 [ms]
[INFO] CorrectBoundary: 0.449 [ms]
[INFO] PISOStep: 1189.05 [ms]
[INFO] MatrixAssemblyPI: 65.534 [ms]
[INFO] AdjustPhi: 4.391 [ms]
[INFO] ConstrainPressure: 0.004 [ms]
[INFO] MatrixAssemblyPII: 19.952 [ms]
GAMG:  Solving for p, Initial residual = 0.276859, Final residual = 9.55116e-05, No Iterations 20
[INFO] SolveP: 972.585 [ms]
time step continuity errors : sum local = 4.54838e-09, global = -1.01635e-21, cumulative = -6.15899e-20
[INFO] ContinuityError: 7.475 [ms]
[INFO] CorrectBoundary: 0.375 [ms]
[INFO] PISOStep: 1094.59 [ms]
[INFO] TimeStep: 2843.06 [ms]
ExecutionTime = 49.06 s  ClockTime = 49 s

Time = 0.004

Courant Number mean: 0.0558606 max: 0.485104
[INFO] MatrixAssemblyU: 60.352 [ms]
DILUPBiCGStab:  Solving for Ux, Initial residual = 0.00596892, Final residual = 0.000102647, No Iterations 5
DILUPBiCGStab:  Solving for Uy, Initial residual = 0.0145688, Final residual = 0.000216554, No Iterations 5
DILUPBiCGStab:  Solving for Uz, Initial residual = 0.0798429, Final residual = 0.00397437, No Iterations 5
[INFO] MomentumPredictor: 492.682 [ms]
[INFO] MatrixAssemblyPI: 67.455 [ms]
[INFO] AdjustPhi: 5.224 [ms]
[INFO] ConstrainPressure: 0.006 [ms]
[INFO] MatrixAssemblyPII: 20.064 [ms]
GAMG:  Solving for p, Initial residual = 0.28385, Final residual = 9.57696e-05, No Iterations 24
[INFO] SolveP: 1155.17 [ms]
time step continuity errors : sum local = 4.4043e-09, global = -2.65455e-21, cumulative = -6.42445e-20
[INFO] ContinuityError: 7.446 [ms]
[INFO] CorrectBoundary: 0.413 [ms]
[INFO] PISOStep: 1280.23 [ms]
[INFO] MatrixAssemblyPI: 65.6 [ms]
[INFO] AdjustPhi: 4.471 [ms]
[INFO] ConstrainPressure: 0.004 [ms]
[INFO] MatrixAssemblyPII: 20.031 [ms]
GAMG:  Solving for p, Initial residual = 0.250916, Final residual = 9.22436e-05, No Iterations 18
[INFO] SolveP: 877.496 [ms]
time step continuity errors : sum local = 4.22608e-09, global = -4.22157e-21, cumulative = -6.8466e-20
[INFO] ContinuityError: 7.298 [ms]
[INFO] CorrectBoundary: 0.363 [ms]
[INFO] PISOStep: 999.543 [ms]
[INFO] TimeStep: 2840.85 [ms]
ExecutionTime = 51.89 s  ClockTime = 52 s

Time = 0.00425

Courant Number mean: 0.0570987 max: 0.485463
[INFO] MatrixAssemblyU: 61.207 [ms]
DILUPBiCGStab:  Solving for Ux, Initial residual = 0.0055168, Final residual = 8.99716e-05, No Iterations 5
DILUPBiCGStab:  Solving for Uy, Initial residual = 0.0132734, Final residual = 0.000193058, No Iterations 5
DILUPBiCGStab:  Solving for Uz, Initial residual = 0.0742436, Final residual = 0.00366538, No Iterations 5
[INFO] MomentumPredictor: 490.743 [ms]
[INFO] MatrixAssemblyPI: 68.694 [ms]
[INFO] AdjustPhi: 4.234 [ms]
[INFO] ConstrainPressure: 0.009 [ms]
[INFO] MatrixAssemblyPII: 19.822 [ms]
GAMG:  Solving for p, Initial residual = 0.254303, Final residual = 8.73486e-05, No Iterations 22
[INFO] SolveP: 1067.38 [ms]
time step continuity errors : sum local = 3.91706e-09, global = -2.28129e-21, cumulative = -7.07473e-20
[INFO] ContinuityError: 7.654 [ms]
[INFO] CorrectBoundary: 0.765 [ms]
[INFO] PISOStep: 1193.63 [ms]
[INFO] MatrixAssemblyPI: 66.069 [ms]
[INFO] AdjustPhi: 4.698 [ms]
[INFO] ConstrainPressure: 0.004 [ms]
[INFO] MatrixAssemblyPII: 19.873 [ms]
GAMG:  Solving for p, Initial residual = 0.22333, Final residual = 9.81554e-05, No Iterations 24
[INFO] SolveP: 1163 [ms]
time step continuity errors : sum local = 4.40989e-09, global = 5.77346e-22, cumulative = -7.017e-20
[INFO] ContinuityError: 7.333 [ms]
[INFO] CorrectBoundary: 0.314 [ms]
[INFO] PISOStep: 1285.67 [ms]
[INFO] TimeStep: 3039.25 [ms]
ExecutionTime = 54.91 s  ClockTime = 55 s

Time = 0.0045

Courant Number mean: 0.0582672 max: 0.48583
[INFO] MatrixAssemblyU: 60.453 [ms]
DILUPBiCGStab:  Solving for Ux, Initial residual = 0.00512943, Final residual = 8.04258e-05, No Iterations 5
DILUPBiCGStab:  Solving for Uy, Initial residual = 0.0123027, Final residual = 0.000166834, No Iterations 5
DILUPBiCGStab:  Solving for Uz, Initial residual = 0.065887, Final residual = 0.00304961, No Iterations 5
[INFO] MomentumPredictor: 492.344 [ms]
[INFO] MatrixAssemblyPI: 67.378 [ms]
[INFO] AdjustPhi: 4.752 [ms]
[INFO] ConstrainPressure: 0.004 [ms]
[INFO] MatrixAssemblyPII: 19.943 [ms]
GAMG:  Solving for p, Initial residual = 0.231107, Final residual = 8.97622e-05, No Iterations 24
[INFO] SolveP: 1155.22 [ms]
time step continuity errors : sum local = 3.90136e-09, global = -2.10285e-21, cumulative = -7.22728e-20
[INFO] ContinuityError: 7.292 [ms]
[INFO] CorrectBoundary: 0.441 [ms]
[INFO] PISOStep: 1279.71 [ms]
[INFO] MatrixAssemblyPI: 65.396 [ms]
[INFO] AdjustPhi: 4.69 [ms]
[INFO] ConstrainPressure: 0.004 [ms]
[INFO] MatrixAssemblyPII: 19.926 [ms]
GAMG:  Solving for p, Initial residual = 0.203796, Final residual = 9.58694e-05, No Iterations 26
[INFO] SolveP: 1276.2 [ms]
time step continuity errors : sum local = 4.15207e-09, global = -3.18462e-21, cumulative = -7.54575e-20
[INFO] ContinuityError: 8.161 [ms]
[INFO] CorrectBoundary: 0.305 [ms]
[INFO] PISOStep: 1398.9 [ms]
[INFO] TimeStep: 3239.59 [ms]
ExecutionTime = 58.13 s  ClockTime = 58 s

Time = 0.00475

Courant Number mean: 0.0593741 max: 0.486132
[INFO] MatrixAssemblyU: 61.618 [ms]
DILUPBiCGStab:  Solving for Ux, Initial residual = 0.00477496, Final residual = 7.12798e-05, No Iterations 5
DILUPBiCGStab:  Solving for Uy, Initial residual = 0.0113451, Final residual = 0.000154104, No Iterations 5
DILUPBiCGStab:  Solving for Uz, Initial residual = 0.0591615, Final residual = 0.0026023, No Iterations 5
[INFO] MomentumPredictor: 491.444 [ms]
[INFO] MatrixAssemblyPI: 67.368 [ms]
[INFO] AdjustPhi: 4.644 [ms]
[INFO] ConstrainPressure: 0.007 [ms]
[INFO] MatrixAssemblyPII: 19.918 [ms]
GAMG:  Solving for p, Initial residual = 0.205044, Final residual = 8.96021e-05, No Iterations 22
[INFO] SolveP: 1062.76 [ms]
time step continuity errors : sum local = 3.83285e-09, global = -3.57337e-21, cumulative = -7.90308e-20
[INFO] ContinuityError: 7.162 [ms]
[INFO] CorrectBoundary: 0.429 [ms]
[INFO] PISOStep: 1186.61 [ms]
[INFO] MatrixAssemblyPI: 65.549 [ms]
[INFO] AdjustPhi: 4.546 [ms]
[INFO] ConstrainPressure: 0.005 [ms]
[INFO] MatrixAssemblyPII: 20.016 [ms]
GAMG:  Solving for p, Initial residual = 0.179757, Final residual = 9.41983e-05, No Iterations 26
[INFO] SolveP: 1258.21 [ms]
time step continuity errors : sum local = 4.04377e-09, global = -4.93206e-21, cumulative = -8.39629e-20
[INFO] ContinuityError: 7.909 [ms]
[INFO] CorrectBoundary: 0.376 [ms]
[INFO] PISOStep: 1380.83 [ms]
[INFO] TimeStep: 3128.97 [ms]
ExecutionTime = 61.26 s  ClockTime = 61 s

Time = 0.005

Courant Number mean: 0.060424 max: 0.486429
[INFO] MatrixAssemblyU: 60.463 [ms]
DILUPBiCGStab:  Solving for Ux, Initial residual = 0.00447493, Final residual = 6.45561e-05, No Iterations 5
DILUPBiCGStab:  Solving for Uy, Initial residual = 0.0106, Final residual = 0.000135969, No Iterations 5
DILUPBiCGStab:  Solving for Uz, Initial residual = 0.0546532, Final residual = 0.00224153, No Iterations 5
[INFO] MomentumPredictor: 491.855 [ms]
[INFO] MatrixAssemblyPI: 67.317 [ms]
[INFO] AdjustPhi: 4.868 [ms]
[INFO] ConstrainPressure: 0.004 [ms]
[INFO] MatrixAssemblyPII: 19.924 [ms]
GAMG:  Solving for p, Initial residual = 0.18692, Final residual = 9.60217e-05, No Iterations 28
[INFO] SolveP: 1353.47 [ms]
time step continuity errors : sum local = 3.97002e-09, global = -1.52584e-21, cumulative = -8.54887e-20
[INFO] ContinuityError: 7.579 [ms]
[INFO] CorrectBoundary: 0.698 [ms]
[INFO] PISOStep: 1477.8 [ms]
[INFO] MatrixAssemblyPI: 65.283 [ms]
[INFO] AdjustPhi: 5.844 [ms]
[INFO] ConstrainPressure: 0.005 [ms]
[INFO] MatrixAssemblyPII: 19.871 [ms]
GAMG:  Solving for p, Initial residual = 0.164508, Final residual = 9.5529e-05, No Iterations 23
[INFO] SolveP: 1116.38 [ms]
time step continuity errors : sum local = 3.95857e-09, global = -4.03695e-21, cumulative = -8.95257e-20
[INFO] ContinuityError: 7.438 [ms]
[INFO] CorrectBoundary: 0.374 [ms]
[INFO] PISOStep: 1239.64 [ms]
[INFO] TimeStep: 3277.89 [ms]
ExecutionTime = 64.52 s  ClockTime = 64 s

End

Finalising parallel run
