/*---------------------------------------------------------------------------*\
| =========                 |                                                 |
| \\      /  F ield         | OpenFOAM: The Open Source CFD Toolbox           |
|  \\    /   O peration     | Version:  2306                                  |
|   \\  /    A nd           | Website:  www.openfoam.com                      |
|    \\/     M anipulation  |                                                 |
\*---------------------------------------------------------------------------*/
Build  : a6e826bd55-20230630 OPENFOAM=2306 version=v2306
Arch   : "LSB;label=32;scalar=64"
Exec   : simpleFoam -parallel -case /home/greole/data/code/exasim_project/micro_benchmarks/WindsorBody/workspace/b55c475bc8109a3358eba656c08ba958/case
Date   : Aug 11 2023
Time   : 22:40:17
Host   : nla-gpu2.ianm.kit.edu
PID    : 2484314
I/O    : uncollated
Case   : /home/greole/data/code/exasim_project/micro_benchmarks/WindsorBody/workspace/b55c475bc8109a3358eba656c08ba958/case
nProcs : 32
Hosts  :
(
    (nla-gpu2.ianm.kit.edu 32)
)
Pstream initialized with:
    floatTransfer      : false
    nProcsSimpleSum    : 0
    nonBlockingExchange: 0 (tuning: 0)
    exchange algorithm : -1
    commsType          : nonBlocking
    polling iterations : 0
trapFpe: Floating point exception trapping enabled (FOAM_SIGFPE).
fileModificationChecking : Monitoring run-time modified files using timeStampMaster (fileModificationSkew 5, maxFileModificationPolls 20)
allowSystemOperations : Allowing user-supplied system call operations

// * * * * * * * * * * * * * * * * * * * * * * * * * * * * * * * * * * * * * //
Create time

--> FOAM Warning : 
    From void* Foam::dlLibraryTable::openLibrary(const Foam::fileName&, bool)
    in file db/dynamicLibrary/dlLibraryTable/dlLibraryTable.C at line 188
    Could not load "libpetscFoam.so"
libpetscFoam.so: cannot open shared object file: No such file or directory
Create mesh for time = 0


SIMPLE: convergence criteria
    field p	 tolerance 1e-08
    field U	 tolerance 1e-08
    field k	 tolerance 1e-08
    field omega	 tolerance 1e-08
    field nuTilda	 tolerance 1e-08

Reading field p

Reading field U

Reading/calculating face flux field phi

Selecting incompressible transport model Newtonian
Selecting turbulence model type RAS
Selecting RAS turbulence model SpalartAllmaras
Selecting patchDistMethod meshWave
ft2 term: inactive
RAS
{
    RASModel        SpalartAllmaras;
    turbulence      on;
    printCoeffs     on;
    sigmaNut        0.66666;
    kappa           0.41;
    Cb1             0.1355;
    Cb2             0.622;
    Cw2             0.3;
    Cw3             2;
    Cv1             7.1;
    Cs              0.3;
    ck              0.07000000000000001;
    ft2             false;
    Ct3             1.2;
    Ct4             0.5;
}

No MRF models present

Creating finite volume options from "system/fvOptions"

Selecting finite volume options type velocityDampingConstraint
    Source: velocityDamping
    - selecting all cells
    - selected 25228544 cell(s) with volume 111.3033220642923

Starting time loop

--> FOAM Warning : 
    From bool Foam::functionObjectList::read()
    in file db/functionObjects/functionObjectList/functionObjectList.C at line 1035
    Reading "system/controlDict" at line 2 to 41
    Entry 'lref' is not a dictionary
--> FOAM Warning : 
    From bool Foam::functionObjectList::read()
    in file db/functionObjects/functionObjectList/functionObjectList.C at line 1035
    Reading "system/controlDict" at line 2 to 41
    Entry 'Aref' is not a dictionary
--> FOAM Warning : 
    From bool Foam::functionObjectList::read()
    in file db/functionObjects/functionObjectList/functionObjectList.C at line 1035
    Reading "system/controlDict" at line 2 to 41
    Entry 'yawAngle' is not a dictionary
--> FOAM Warning : 
    From bool Foam::functionObjectList::read()
    in file db/functionObjects/functionObjectList/functionObjectList.C at line 1035
    Reading "system/controlDict" at line 2 to 41
    Entry 'lDomain' is not a dictionary
--> FOAM Warning : 
    From bool Foam::functionObjectList::read()
    in file db/functionObjects/functionObjectList/functionObjectList.C at line 1035
    Reading "system/controlDict" at line 2 to 41
    Entry 'bDomain' is not a dictionary
--> FOAM Warning : 
    From bool Foam::functionObjectList::read()
    in file db/functionObjects/functionObjectList/functionObjectList.C at line 1035
    Reading "system/controlDict" at line 2 to 41
    Entry 'hDomain' is not a dictionary
--> FOAM Warning : 
    From bool Foam::functionObjectList::read()
    in file db/functionObjects/functionObjectList/functionObjectList.C at line 1035
    Reading "system/controlDict" at line 2 to 41
    Entry 'xCenter' is not a dictionary
--> FOAM Warning : 
    From bool Foam::functionObjectList::read()
    in file db/functionObjects/functionObjectList/functionObjectList.C at line 1035
    Reading "system/controlDict" at line 2 to 41
    Entry 'yCenter' is not a dictionary
--> FOAM Warning : 
    From bool Foam::functionObjectList::read()
    in file db/functionObjects/functionObjectList/functionObjectList.C at line 1035
    Reading "system/controlDict" at line 2 to 41
    Entry 'zCenter' is not a dictionary
--> FOAM Warning : 
    From bool Foam::functionObjectList::read()
    in file db/functionObjects/functionObjectList/functionObjectList.C at line 1035
    Reading "system/controlDict" at line 2 to 41
    Entry 'inletPatch' is not a dictionary
--> FOAM Warning : 
    From bool Foam::functionObjectList::read()
    in file db/functionObjects/functionObjectList/functionObjectList.C at line 1035
    Reading "system/controlDict" at line 2 to 41
    Entry 'outletPatch' is not a dictionary
--> FOAM Warning : 
    From bool Foam::functionObjectList::read()
    in file db/functionObjects/functionObjectList/functionObjectList.C at line 1035
    Reading "system/controlDict" at line 2 to 41
    Entry 'wallPatches' is not a dictionary
--> FOAM Warning : 
    From bool Foam::functionObjectList::read()
    in file db/functionObjects/functionObjectList/functionObjectList.C at line 1035
    Reading "system/controlDict" at line 2 to 41
    Entry 'forcesWallPatches' is not a dictionary
--> FOAM Warning : 
    From bool Foam::functionObjectList::read()
    in file db/functionObjects/functionObjectList/functionObjectList.C at line 1035
    Reading "system/controlDict" at line 2 to 41
    Entry 'symmPatches' is not a dictionary
--> FOAM Warning : 
    From bool Foam::functionObjectList::read()
    in file db/functionObjects/functionObjectList/functionObjectList.C at line 1035
    Reading "system/controlDict" at line 2 to 41
    Entry 'Uinf' is not a dictionary
--> FOAM Warning : 
    From bool Foam::functionObjectList::read()
    in file db/functionObjects/functionObjectList/functionObjectList.C at line 1035
    Reading "system/controlDict" at line 2 to 41
    Entry 'UinfMag' is not a dictionary
--> FOAM Warning : 
    From bool Foam::functionObjectList::read()
    in file db/functionObjects/functionObjectList/functionObjectList.C at line 1035
    Reading "system/controlDict" at line 2 to 41
    Entry 'nu' is not a dictionary
--> FOAM Warning : 
    From bool Foam::functionObjectList::read()
    in file db/functionObjects/functionObjectList/functionObjectList.C at line 1035
    Reading "system/controlDict" at line 2 to 41
    Entry 'pref' is not a dictionary
--> FOAM Warning : 
    From bool Foam::functionObjectList::read()
    in file db/functionObjects/functionObjectList/functionObjectList.C at line 1035
    Reading "system/controlDict" at line 2 to 41
    Entry 'viscRatio' is not a dictionary
--> FOAM Warning : 
    From bool Foam::functionObjectList::read()
    in file db/functionObjects/functionObjectList/functionObjectList.C at line 1035
    Reading "system/controlDict" at line 2 to 41
    Entry 'Tu' is not a dictionary
--> FOAM Warning : 
    From bool Foam::functionObjectList::read()
    in file db/functionObjects/functionObjectList/functionObjectList.C at line 1035
    Reading "system/controlDict" at line 2 to 41
    Entry 'LESturbModel' is not a dictionary
--> FOAM Warning : 
    From bool Foam::functionObjectList::read()
    in file db/functionObjects/functionObjectList/functionObjectList.C at line 1035
    Reading "system/controlDict" at line 2 to 41
    Entry 'RASturbModel' is not a dictionary
--> FOAM Warning : 
    From bool Foam::functionObjectList::read()
    in file db/functionObjects/functionObjectList/functionObjectList.C at line 1035
    Reading "system/controlDict" at line 2 to 41
    Entry 'deltaTurb' is not a dictionary
--> FOAM Warning : 
    From bool Foam::functionObjectList::read()
    in file db/functionObjects/functionObjectList/functionObjectList.C at line 1035
    Reading "system/controlDict" at line 2 to 41
    Entry 'dt' is not a dictionary
--> FOAM Warning : 
    From bool Foam::functionObjectList::read()
    in file db/functionObjects/functionObjectList/functionObjectList.C at line 1035
    Reading "system/controlDict" at line 2 to 41
    Entry 'tAvg' is not a dictionary
--> FOAM Warning : 
    From bool Foam::functionObjectList::read()
    in file db/functionObjects/functionObjectList/functionObjectList.C at line 1035
    Reading "system/controlDict" at line 2 to 41
    Entry 'tEnd' is not a dictionary
--> FOAM Warning : 
    From bool Foam::functionObjectList::read()
    in file db/functionObjects/functionObjectList/functionObjectList.C at line 1035
    Reading "system/controlDict" at line 2 to 41
    Entry 'writeInterval_' is not a dictionary
--> FOAM Warning : 
    From bool Foam::functionObjectList::read()
    in file db/functionObjects/functionObjectList/functionObjectList.C at line 1035
    Reading "system/controlDict" at line 2 to 41
    Entry 'nCores' is not a dictionary
--> FOAM Warning : 
    From bool Foam::functionObjectList::read()
    in file db/functionObjects/functionObjectList/functionObjectList.C at line 1035
    Reading "system/controlDict" at line 2 to 41
    Entry 'interpScheme' is not a dictionary
--> FOAM Warning : 
    From bool Foam::functionObjectList::read()
    in file db/functionObjects/functionObjectList/functionObjectList.C at line 1035
    Reading "system/controlDict" at line 2 to 41
    Entry 'probeField' is not a dictionary
wallShearStress wallShearStress:
    processing wall patches: 
        Windsor_Body
        CFDWT_Floor
        Windsor_Pins
        Windsor_Base
        Windsor_Body_2
        CFDWT_Floor_2
        Windsor_Pins_2
        Windsor_Base_2
        Windsor_Body_3
        CFDWT_Floor_3
        Windsor_Pins_3
        Windsor_Base_3
        Windsor_Body_4
        CFDWT_Floor_4
        Windsor_Pins_4
        Windsor_Base_4

pressure calc_cp:
    Operating mode: staticCoeff
    Not including hydrostatic effects

forceCoeffs forceCoeffsAll:
    rho: rhoInf
    Freestream density (rhoInf) set to 1
    Not including porosity effects
    magUInf: 40
    lRef   : 0.6375
    Aref   : 0.1124
    rhoInf : 1
    Selecting all coefficients
    - Drag force: Cd
    - Drag force front: Cd(f)
    - Drag force rear: Cd(r)
    - Lift force: Cl
    - Lift force front: Cl(f)
    - Lift force rear: Cl(r)
    - Pitch moment: CmPitch
    - Roll moment: CmRoll
    - Yaw moment: CmYaw
    - Side force: Cs
    - Side force front: Cs(f)
    - Side force rear: Cs(r)


forceCoeffs dragCoeffBase:
    rho: rhoInf
    Freestream density (rhoInf) set to 1
    Not including porosity effects
    magUInf: 40
    lRef   : 0.6375
    Aref   : 0.1124
    rhoInf : 1
    Selecting coefficients:
    - Drag force: Cd


Time = 1

velocityDampingConstraint velocityDamping damped 0 (0%) of cells, with max limit 300
[INFO] MatrixAssemblyU: 1789.374 [ms]
smoothSolver:  Solving for Ux, Initial residual = 0.999999999999132, Final residual = 0.08732233576025124, No Iterations 15
smoothSolver:  Solving for Uy, Initial residual = 1, Final residual = 0.08969304284504311, No Iterations 31
smoothSolver:  Solving for Uz, Initial residual = 1, Final residual = 0.03285812320514895, No Iterations 2
[INFO] MomentumPredictor: 1872.032 [ms]
[INFO] MatrixAssemblyPI: 326.048 [ms]
[INFO] MatrixAssemblyPII: 154.747 [ms]
GAMG:  Solving for p, Initial residual = 1, Final residual = 0.007971602819277441, No Iterations 24
[INFO] SolveP: 4131.525 [ms]
time step continuity errors : sum local = 0.002924822968243829, global = 1.05318462644334e-05, cumulative = 1.05318462644334e-05
[INFO] postSolveP: 78.93899999999999 [ms]
smoothSolver:  Solving for nuTilda, Initial residual = 0.9999999972912863, Final residual = 0.06431347745930344, No Iterations 3
[INFO] TimeStep: 9461.615 [ms]
ExecutionTime = 31.89 s  ClockTime = 33 s

--> FOAM Warning : 
    From virtual bool Foam::functionObjects::fieldSelection::checkSelection()
    in file functionObjects/fieldSelections/fieldSelection/fieldSelection.C at line 166
    Field k not found
--> FOAM Warning : 
    From virtual bool Foam::functionObjects::fieldSelection::checkSelection()
    in file functionObjects/fieldSelections/fieldSelection/fieldSelection.C at line 166
    Field gammaInt not found
--> FOAM Warning : 
    From virtual bool Foam::functionObjects::fieldSelection::checkSelection()
    in file functionObjects/fieldSelections/fieldSelection/fieldSelection.C at line 166
    Field omega not found
--> FOAM Warning : 
    From virtual bool Foam::functionObjects::fieldSelection::checkSelection()
    in file functionObjects/fieldSelections/fieldSelection/fieldSelection.C at line 166
    Field ReThetat not found
--> FOAM Warning : 
    From virtual bool Foam::functionObjects::fieldSelection::checkSelection()
    in file functionObjects/fieldSelections/fieldSelection/fieldSelection.C at line 166
    Field epsilon not found
--> FOAM Warning : 
    From virtual bool Foam::functionObjects::solverFieldSelection::updateSelection()
    in file functionObjects/fieldSelections/solverFieldSelection/solverFieldSelection.C at line 85
    Valid solver fields are: 3(U nuTilda p)Time = 2

velocityDampingConstraint velocityDamping damped 0 (0%) of cells, with max limit 300
[INFO] MatrixAssemblyU: 1679.063 [ms]
smoothSolver:  Solving for Ux, Initial residual = 0.2130557770992058, Final residual = 0.01840301431868414, No Iterations 13
smoothSolver:  Solving for Uy, Initial residual = 0.3544202486149873, Final residual = 0.03304514839326447, No Iterations 13
smoothSolver:  Solving for Uz, Initial residual = 0.3289419396385448, Final residual = 0.02813061183141013, No Iterations 13
[INFO] MomentumPredictor: 1564.477 [ms]
[INFO] MatrixAssemblyPI: 328.868 [ms]
[INFO] MatrixAssemblyPII: 154.812 [ms]
GAMG:  Solving for p, Initial residual = 0.2100313010167094, Final residual = 0.002014306672389974, No Iterations 12
[INFO] SolveP: 1853.518 [ms]
time step continuity errors : sum local = 0.04123823763155458, global = -0.0003630607422009963, cumulative = -0.0003525288959365629
[INFO] postSolveP: 78.69199999999999 [ms]
smoothSolver:  Solving for nuTilda, Initial residual = 0.4059927541681719, Final residual = 0.02532008968701444, No Iterations 1
[INFO] TimeStep: 6704.447 [ms]
ExecutionTime = 39.88 s  ClockTime = 41 s

Time = 3

velocityDampingConstraint velocityDamping damped 3324 (0.01%) of cells, with max limit 300
[INFO] MatrixAssemblyU: 1694.157 [ms]
smoothSolver:  Solving for Ux, Initial residual = 0.125798477858817, Final residual = 0.01194809067144803, No Iterations 9
smoothSolver:  Solving for Uy, Initial residual = 0.2046369387636501, Final residual = 0.01994046368469017, No Iterations 10
smoothSolver:  Solving for Uz, Initial residual = 0.2163345063173348, Final residual = 0.02143638965393346, No Iterations 9
[INFO] MomentumPredictor: 1210.991 [ms]
[INFO] MatrixAssemblyPI: 328.608 [ms]
[INFO] MatrixAssemblyPII: 153.865 [ms]
GAMG:  Solving for p, Initial residual = 0.1073214768245699, Final residual = 0.001005044604520634, No Iterations 10
[INFO] SolveP: 1560.35 [ms]
time step continuity errors : sum local = 0.0122902157085341, global = -0.0001547730386415653, cumulative = -0.0005073019345781281
[INFO] postSolveP: 78.759 [ms]
smoothSolver:  Solving for nuTilda, Initial residual = 0.208469205727166, Final residual = 0.01316248351268013, No Iterations 2
[INFO] TimeStep: 6107.289 [ms]
ExecutionTime = 47.26 s  ClockTime = 48 s

Time = 4

velocityDampingConstraint velocityDamping damped 0 (0%) of cells, with max limit 300
[INFO] MatrixAssemblyU: 1694.933 [ms]
smoothSolver:  Solving for Ux, Initial residual = 0.05400986682399059, Final residual = 0.004904328118882926, No Iterations 11
smoothSolver:  Solving for Uy, Initial residual = 0.1211251167661072, Final residual = 0.01064575268401459, No Iterations 11
smoothSolver:  Solving for Uz, Initial residual = 0.1309937888065157, Final residual = 0.01264428234949132, No Iterations 10
[INFO] MomentumPredictor: 1345.134 [ms]
[INFO] MatrixAssemblyPI: 328.682 [ms]
[INFO] MatrixAssemblyPII: 154.495 [ms]
GAMG:  Solving for p, Initial residual = 0.1453037173855457, Final residual = 0.001130454050406553, No Iterations 7
[INFO] SolveP: 1114.54 [ms]
time step continuity errors : sum local = 0.01046737789851263, global = 0.0001401486351909836, cumulative = -0.0003671532993871445
[INFO] postSolveP: 78.702 [ms]
smoothSolver:  Solving for nuTilda, Initial residual = 0.1247909161949907, Final residual = 0.01049811134562666, No Iterations 2
[INFO] TimeStep: 5791.382 [ms]
ExecutionTime = 54.34 s  ClockTime = 55 s

Time = 5

velocityDampingConstraint velocityDamping damped 455 (0%) of cells, with max limit 300
[INFO] MatrixAssemblyU: 1686.301 [ms]
smoothSolver:  Solving for Ux, Initial residual = 0.04382304112393015, Final residual = 0.004179234322800818, No Iterations 10
smoothSolver:  Solving for Uy, Initial residual = 0.09668658387504907, Final residual = 0.009023947620755613, No Iterations 11
smoothSolver:  Solving for Uz, Initial residual = 0.113249128598964, Final residual = 0.01113227425478529, No Iterations 10
[INFO] MomentumPredictor: 1309.101 [ms]
[INFO] MatrixAssemblyPI: 327.941 [ms]
[INFO] MatrixAssemblyPII: 154.424 [ms]
GAMG:  Solving for p, Initial residual = 0.110932150489952, Final residual = 0.0010626527018704, No Iterations 7
[INFO] SolveP: 1116.347 [ms]
time step continuity errors : sum local = 0.007339109550716739, global = 0.0002132159604462021, cumulative = -0.0001539373389409425
[INFO] postSolveP: 79.047 [ms]
smoothSolver:  Solving for nuTilda, Initial residual = 0.07087443212516893, Final residual = 0.004313025938669121, No Iterations 3
[INFO] TimeStep: 5780.31 [ms]
ExecutionTime = 61.39 s  ClockTime = 62 s

Time = 6

velocityDampingConstraint velocityDamping damped 0 (0%) of cells, with max limit 300
[INFO] MatrixAssemblyU: 1681.453 [ms]
smoothSolver:  Solving for Ux, Initial residual = 0.02987183889564942, Final residual = 0.002660992487745464, No Iterations 12
smoothSolver:  Solving for Uy, Initial residual = 0.07441480069296855, Final residual = 0.00688540316578734, No Iterations 12
smoothSolver:  Solving for Uz, Initial residual = 0.08126749710420944, Final residual = 0.006966010318692817, No Iterations 12
[INFO] MomentumPredictor: 1483.196 [ms]
[INFO] MatrixAssemblyPI: 328.27 [ms]
[INFO] MatrixAssemblyPII: 153.21 [ms]
GAMG:  Solving for p, Initial residual = 0.09333245677697517, Final residual = 0.0009133339459353622, No Iterations 6
[INFO] SolveP: 973.648 [ms]
time step continuity errors : sum local = 0.006925352988672803, global = 5.724722978085374e-05, cumulative = -9.669010916008873e-05
[INFO] postSolveP: 79.07299999999999 [ms]
smoothSolver:  Solving for nuTilda, Initial residual = 0.06429099208499234, Final residual = 0.003002853329200438, No Iterations 3
[INFO] TimeStep: 5802.801 [ms]
ExecutionTime = 68.45 s  ClockTime = 69 s

Time = 7

velocityDampingConstraint velocityDamping damped 53 (0%) of cells, with max limit 300
[INFO] MatrixAssemblyU: 1678.627 [ms]
smoothSolver:  Solving for Ux, Initial residual = 0.02702501603333678, Final residual = 0.002415436949890041, No Iterations 12
smoothSolver:  Solving for Uy, Initial residual = 0.06740363848734567, Final residual = 0.006415736748979521, No Iterations 12
smoothSolver:  Solving for Uz, Initial residual = 0.07129241405850896, Final residual = 0.006261151410690753, No Iterations 12
[INFO] MomentumPredictor: 1464.511 [ms]
[INFO] MatrixAssemblyPI: 327.087 [ms]
[INFO] MatrixAssemblyPII: 154.223 [ms]
GAMG:  Solving for p, Initial residual = 0.07956480440986098, Final residual = 0.0006945185593293375, No Iterations 6
[INFO] SolveP: 969.659 [ms]
time step continuity errors : sum local = 0.005285099205385172, global = -5.140409898281008e-05, cumulative = -0.0001480942081428988
[INFO] postSolveP: 78.91200000000001 [ms]
smoothSolver:  Solving for nuTilda, Initial residual = 0.04910297462964028, Final residual = 0.003230449667215058, No Iterations 3
[INFO] TimeStep: 5778.301 [ms]
ExecutionTime = 75.5 s  ClockTime = 76 s

Time = 8

velocityDampingConstraint velocityDamping damped 0 (0%) of cells, with max limit 300
[INFO] MatrixAssemblyU: 1677.837 [ms]
smoothSolver:  Solving for Ux, Initial residual = 0.02311059565894961, Final residual = 0.002144235987328828, No Iterations 12
smoothSolver:  Solving for Uy, Initial residual = 0.06015496602707381, Final residual = 0.005922947786570589, No Iterations 12
smoothSolver:  Solving for Uz, Initial residual = 0.06213014804370964, Final residual = 0.00564093136648503, No Iterations 12
[INFO] MomentumPredictor: 1464.56 [ms]
[INFO] MatrixAssemblyPI: 328.347 [ms]
[INFO] MatrixAssemblyPII: 154.188 [ms]
GAMG:  Solving for p, Initial residual = 0.07297052070205558, Final residual = 0.0004761513881448377, No Iterations 6
[INFO] SolveP: 968.317 [ms]
time step continuity errors : sum local = 0.003647336892039574, global = -3.023782179150945e-05, cumulative = -0.0001783320299344083
[INFO] postSolveP: 79.09699999999999 [ms]
smoothSolver:  Solving for nuTilda, Initial residual = 0.06543876914853065, Final residual = 0.005858046595244732, No Iterations 2
[INFO] TimeStep: 5743.622 [ms]
ExecutionTime = 82.51000000000001 s  ClockTime = 83 s

Time = 9

velocityDampingConstraint velocityDamping damped 0 (0%) of cells, with max limit 300
[INFO] MatrixAssemblyU: 1674.09 [ms]
smoothSolver:  Solving for Ux, Initial residual = 0.02038757375928827, Final residual = 0.001904961290846475, No Iterations 12
smoothSolver:  Solving for Uy, Initial residual = 0.05429624295601506, Final residual = 0.005428975829506427, No Iterations 12
smoothSolver:  Solving for Uz, Initial residual = 0.05523475868209377, Final residual = 0.005136809283682086, No Iterations 12
[INFO] MomentumPredictor: 1470.358 [ms]
[INFO] MatrixAssemblyPI: 327.456 [ms]
[INFO] MatrixAssemblyPII: 154.702 [ms]
GAMG:  Solving for p, Initial residual = 0.06720443990128186, Final residual = 0.0006238189349470539, No Iterations 5
[INFO] SolveP: 821.5549999999999 [ms]
time step continuity errors : sum local = 0.00479327631879542, global = -3.08816935795947e-05, cumulative = -0.000209213723514003
[INFO] postSolveP: 78.63500000000001 [ms]
smoothSolver:  Solving for nuTilda, Initial residual = 0.04412736218767196, Final residual = 0.003201443761237069, No Iterations 3
[INFO] TimeStep: 5631.224 [ms]
ExecutionTime = 89.41 s  ClockTime = 90 s

Time = 10

velocityDampingConstraint velocityDamping damped 0 (0%) of cells, with max limit 300
[INFO] MatrixAssemblyU: 1676.565 [ms]
smoothSolver:  Solving for Ux, Initial residual = 0.01833656917789975, Final residual = 0.001727568731826645, No Iterations 12
smoothSolver:  Solving for Uy, Initial residual = 0.05008661332401915, Final residual = 0.00499305133554563, No Iterations 12
smoothSolver:  Solving for Uz, Initial residual = 0.0505013736114495, Final residual = 0.004762863599181022, No Iterations 12
[INFO] MomentumPredictor: 1475.853 [ms]
[INFO] MatrixAssemblyPI: 328.184 [ms]
[INFO] MatrixAssemblyPII: 153.109 [ms]
GAMG:  Solving for p, Initial residual = 0.06145322514001797, Final residual = 0.0005800987212304036, No Iterations 5
[INFO] SolveP: 819.925 [ms]
time step continuity errors : sum local = 0.004419865742947887, global = 2.869008097964607e-06, cumulative = -0.0002063447154160384
[INFO] postSolveP: 78.49299999999999 [ms]
smoothSolver:  Solving for nuTilda, Initial residual = 0.06978376897185437, Final residual = 0.005486036039020468, No Iterations 2
[INFO] TimeStep: 5605.102 [ms]
ExecutionTime = 96.27 s  ClockTime = 97 s

Time = 11

velocityDampingConstraint velocityDamping damped 0 (0%) of cells, with max limit 300
[INFO] MatrixAssemblyU: 1674.3 [ms]
smoothSolver:  Solving for Ux, Initial residual = 0.01668758719443962, Final residual = 0.001604857679839887, No Iterations 12
smoothSolver:  Solving for Uy, Initial residual = 0.04730674790689087, Final residual = 0.00468083426789837, No Iterations 12
smoothSolver:  Solving for Uz, Initial residual = 0.04731883312680486, Final residual = 0.004492952655892792, No Iterations 12
[INFO] MomentumPredictor: 1471.554 [ms]
[INFO] MatrixAssemblyPI: 327.517 [ms]
[INFO] MatrixAssemblyPII: 153.254 [ms]
GAMG:  Solving for p, Initial residual = 0.05696945198713928, Final residual = 0.00056645083805839, No Iterations 5
[INFO] SolveP: 819.526 [ms]
time step continuity errors : sum local = 0.004341919597631085, global = 2.539969927338171e-05, cumulative = -0.0001809450161426566
[INFO] postSolveP: 79.559 [ms]
smoothSolver:  Solving for nuTilda, Initial residual = 0.03912236302921157, Final residual = 0.003026919529566804, No Iterations 3
[INFO] TimeStep: 5629.278 [ms]
ExecutionTime = 103.16 s  ClockTime = 104 s

Time = 12

velocityDampingConstraint velocityDamping damped 0 (0%) of cells, with max limit 300
[INFO] MatrixAssemblyU: 1674.15 [ms]
smoothSolver:  Solving for Ux, Initial residual = 0.01555372961437346, Final residual = 0.001518425186004193, No Iterations 12
smoothSolver:  Solving for Uy, Initial residual = 0.04528552502509126, Final residual = 0.004450649683434592, No Iterations 12
smoothSolver:  Solving for Uz, Initial residual = 0.04490542111985448, Final residual = 0.004284880217599794, No Iterations 12
[INFO] MomentumPredictor: 1465.905 [ms]
[INFO] MatrixAssemblyPI: 327.181 [ms]
[INFO] MatrixAssemblyPII: 155.241 [ms]
GAMG:  Solving for p, Initial residual = 0.05301885361216822, Final residual = 0.0003355574576101605, No Iterations 6
[INFO] SolveP: 966.059 [ms]
time step continuity errors : sum local = 0.002586778235720992, global = 3.054681708302936e-05, cumulative = -0.0001503981990596273
[INFO] postSolveP: 78.82299999999999 [ms]
smoothSolver:  Solving for nuTilda, Initial residual = 0.0655382041718463, Final residual = 0.005100844010295418, No Iterations 2
[INFO] TimeStep: 5737.779 [ms]
ExecutionTime = 110.16 s  ClockTime = 111 s

Time = 13

velocityDampingConstraint velocityDamping damped 0 (0%) of cells, with max limit 300
[INFO] MatrixAssemblyU: 1679.518 [ms]
smoothSolver:  Solving for Ux, Initial residual = 0.01452740809966899, Final residual = 0.001445378887471222, No Iterations 12
smoothSolver:  Solving for Uy, Initial residual = 0.04340150054073155, Final residual = 0.004256183496454935, No Iterations 12
smoothSolver:  Solving for Uz, Initial residual = 0.0430801709963487, Final residual = 0.004137410233290391, No Iterations 12
[INFO] MomentumPredictor: 1474.58 [ms]
[INFO] MatrixAssemblyPI: 327.295 [ms]
[INFO] MatrixAssemblyPII: 151.94 [ms]
GAMG:  Solving for p, Initial residual = 0.04974426248381046, Final residual = 0.0003146738964318821, No Iterations 6
[INFO] SolveP: 969.39 [ms]
time step continuity errors : sum local = 0.002443069766737602, global = 2.831491001395367e-05, cumulative = -0.0001220832890456736
[INFO] postSolveP: 78.65000000000001 [ms]
smoothSolver:  Solving for nuTilda, Initial residual = 0.03468281050362252, Final residual = 0.002829701777965949, No Iterations 3
[INFO] TimeStep: 5785.456 [ms]
ExecutionTime = 117.2 s  ClockTime = 118 s

Time = 14

velocityDampingConstraint velocityDamping damped 0 (0%) of cells, with max limit 300
[INFO] MatrixAssemblyU: 1672.101 [ms]
smoothSolver:  Solving for Ux, Initial residual = 0.01368915712008722, Final residual = 0.001173512858966889, No Iterations 13
smoothSolver:  Solving for Uy, Initial residual = 0.04158612052472124, Final residual = 0.004088116602393085, No Iterations 12
smoothSolver:  Solving for Uz, Initial residual = 0.04203236223513902, Final residual = 0.004058199684221684, No Iterations 12
[INFO] MomentumPredictor: 1508.649 [ms]
[INFO] MatrixAssemblyPI: 327.746 [ms]
[INFO] MatrixAssemblyPII: 154.646 [ms]
GAMG:  Solving for p, Initial residual = 0.0472672386232615, Final residual = 0.0002981919285236542, No Iterations 6
[INFO] SolveP: 967.404 [ms]
time step continuity errors : sum local = 0.002325785166076028, global = 1.51576484782072e-05, cumulative = -0.0001069256405674664
[INFO] postSolveP: 78.34999999999999 [ms]
smoothSolver:  Solving for nuTilda, Initial residual = 0.05812195129675418, Final residual = 0.004800946479999246, No Iterations 2
[INFO] TimeStep: 5776.438 [ms]
ExecutionTime = 124.24 s  ClockTime = 125 s

Time = 15

velocityDampingConstraint velocityDamping damped 0 (0%) of cells, with max limit 300
[INFO] MatrixAssemblyU: 1672.63 [ms]
smoothSolver:  Solving for Ux, Initial residual = 0.01282132782802443, Final residual = 0.001110420273185662, No Iterations 13
smoothSolver:  Solving for Uy, Initial residual = 0.04015984312653448, Final residual = 0.003973328004424987, No Iterations 12
smoothSolver:  Solving for Uz, Initial residual = 0.04167621941944488, Final residual = 0.00404796405911745, No Iterations 12
[INFO] MomentumPredictor: 1498.993 [ms]
[INFO] MatrixAssemblyPI: 327.105 [ms]
[INFO] MatrixAssemblyPII: 154.305 [ms]
GAMG:  Solving for p, Initial residual = 0.04566425902015463, Final residual = 0.0002953904292149844, No Iterations 6
[INFO] SolveP: 968.924 [ms]
time step continuity errors : sum local = 0.002315052723956301, global = -2.253937601436397e-06, cumulative = -0.0001091795781689028
[INFO] postSolveP: 78.598 [ms]
smoothSolver:  Solving for nuTilda, Initial residual = 0.03130489655664298, Final residual = 0.002662714408556328, No Iterations 3
[INFO] TimeStep: 5801.97 [ms]
ExecutionTime = 131.3 s  ClockTime = 132 s

Time = 16

velocityDampingConstraint velocityDamping damped 0 (0%) of cells, with max limit 300
[INFO] MatrixAssemblyU: 1673.151 [ms]
smoothSolver:  Solving for Ux, Initial residual = 0.01218339004655177, Final residual = 0.001054588506908322, No Iterations 13
smoothSolver:  Solving for Uy, Initial residual = 0.03924013036459238, Final residual = 0.00390094347941679, No Iterations 12
smoothSolver:  Solving for Uz, Initial residual = 0.04159574873974797, Final residual = 0.004051220330342177, No Iterations 12
[INFO] MomentumPredictor: 1508.897 [ms]
[INFO] MatrixAssemblyPI: 328.209 [ms]
[INFO] MatrixAssemblyPII: 154.679 [ms]
GAMG:  Solving for p, Initial residual = 0.04436978010065758, Final residual = 0.0002984382866041144, No Iterations 6
[INFO] SolveP: 970.424 [ms]
time step continuity errors : sum local = 0.002346602563817387, global = -1.320385668887508e-05, cumulative = -0.0001223834348577779
[INFO] postSolveP: 78.297 [ms]
smoothSolver:  Solving for nuTilda, Initial residual = 0.05167273825550121, Final residual = 0.004552095604364253, No Iterations 2
[INFO] TimeStep: 5779.898 [ms]
ExecutionTime = 138.34 s  ClockTime = 140 s

Time = 17

velocityDampingConstraint velocityDamping damped 0 (0%) of cells, with max limit 300
[INFO] MatrixAssemblyU: 1671.564 [ms]
smoothSolver:  Solving for Ux, Initial residual = 0.01156471190243607, Final residual = 0.001005973274119755, No Iterations 13
smoothSolver:  Solving for Uy, Initial residual = 0.0386979168374836, Final residual = 0.003868703648184196, No Iterations 12
smoothSolver:  Solving for Uz, Initial residual = 0.04154563054568367, Final residual = 0.004054429165049793, No Iterations 12
[INFO] MomentumPredictor: 1507.025 [ms]
[INFO] MatrixAssemblyPI: 327.886 [ms]
[INFO] MatrixAssemblyPII: 151.707 [ms]
GAMG:  Solving for p, Initial residual = 0.04388942809862621, Final residual = 0.0003000733535312214, No Iterations 6
[INFO] SolveP: 967.575 [ms]
time step continuity errors : sum local = 0.002373642065625723, global = -1.622589203380515e-05, cumulative = -0.0001386093268915831
[INFO] postSolveP: 78.59699999999999 [ms]
smoothSolver:  Solving for nuTilda, Initial residual = 0.02881829292185226, Final residual = 0.002513863635890561, No Iterations 3
[INFO] TimeStep: 5808.165 [ms]
ExecutionTime = 145.4 s  ClockTime = 147 s

Time = 18

velocityDampingConstraint velocityDamping damped 0 (0%) of cells, with max limit 300
[INFO] MatrixAssemblyU: 1670.084 [ms]
smoothSolver:  Solving for Ux, Initial residual = 0.01122032749166063, Final residual = 0.0009661158766441706, No Iterations 13
smoothSolver:  Solving for Uy, Initial residual = 0.03856028408185511, Final residual = 0.003298315110930171, No Iterations 13
smoothSolver:  Solving for Uz, Initial residual = 0.04174268562607909, Final residual = 0.004059125496190526, No Iterations 12
[INFO] MomentumPredictor: 1541.989 [ms]
[INFO] MatrixAssemblyPI: 327.831 [ms]
[INFO] MatrixAssemblyPII: 153.917 [ms]
GAMG:  Solving for p, Initial residual = 0.04378849620387418, Final residual = 0.0002962215805363061, No Iterations 6
[INFO] SolveP: 968.881 [ms]
time step continuity errors : sum local = 0.00235818980826559, global = -8.002086807068201e-06, cumulative = -0.0001466114136986513
[INFO] postSolveP: 78.646 [ms]
smoothSolver:  Solving for nuTilda, Initial residual = 0.04633525601511603, Final residual = 0.004301582501455399, No Iterations 2
[INFO] TimeStep: 5807.018 [ms]
ExecutionTime = 152.46 s  ClockTime = 154 s

Time = 19

velocityDampingConstraint velocityDamping damped 0 (0%) of cells, with max limit 300
[INFO] MatrixAssemblyU: 1670.691 [ms]
smoothSolver:  Solving for Ux, Initial residual = 0.0108704901506209, Final residual = 0.0009358313763883227, No Iterations 13
smoothSolver:  Solving for Uy, Initial residual = 0.03883566615119666, Final residual = 0.003316893244914973, No Iterations 13
smoothSolver:  Solving for Uz, Initial residual = 0.04251222693184013, Final residual = 0.004105845297978194, No Iterations 12
[INFO] MomentumPredictor: 1544.783 [ms]
[INFO] MatrixAssemblyPI: 327.409 [ms]
[INFO] MatrixAssemblyPII: 153.729 [ms]
GAMG:  Solving for p, Initial residual = 0.04400850937380361, Final residual = 0.000275353191771423, No Iterations 6
[INFO] SolveP: 969.078 [ms]
time step continuity errors : sum local = 0.002206531692375817, global = 5.265756981510706e-06, cumulative = -0.0001413456567171405
[INFO] postSolveP: 78.468 [ms]
smoothSolver:  Solving for nuTilda, Initial residual = 0.02687435451287369, Final residual = 0.002364799402069021, No Iterations 3
[INFO] TimeStep: 5843.369 [ms]
ExecutionTime = 159.56 s  ClockTime = 161 s

Time = 20

velocityDampingConstraint velocityDamping damped 0 (0%) of cells, with max limit 300
[INFO] MatrixAssemblyU: 1673.641 [ms]
smoothSolver:  Solving for Ux, Initial residual = 0.01069541902401518, Final residual = 0.0009166331210179795, No Iterations 13
smoothSolver:  Solving for Uy, Initial residual = 0.03922508541429846, Final residual = 0.003914641570363878, No Iterations 12
smoothSolver:  Solving for Uz, Initial residual = 0.04312929988780864, Final residual = 0.004139599869152392, No Iterations 12
[INFO] MomentumPredictor: 1509.341 [ms]
[INFO] MatrixAssemblyPI: 327.891 [ms]
[INFO] MatrixAssemblyPII: 152.963 [ms]
GAMG:  Solving for p, Initial residual = 0.04390523930927348, Final residual = 0.0004390091350021152, No Iterations 5
[INFO] SolveP: 820.657 [ms]
time step continuity errors : sum local = 0.0035496182254769, global = 1.757104600523144e-05, cumulative = -0.0001237746107119091
[INFO] postSolveP: 78.59 [ms]
smoothSolver:  Solving for nuTilda, Initial residual = 0.04179552570879725, Final residual = 0.004048003343343936, No Iterations 2
[INFO] TimeStep: 5630.859 [ms]
ExecutionTime = 166.44 s  ClockTime = 168 s

Time = 21

velocityDampingConstraint velocityDamping damped 0 (0%) of cells, with max limit 300
[INFO] MatrixAssemblyU: 1675.034 [ms]
smoothSolver:  Solving for Ux, Initial residual = 0.01048954354618742, Final residual = 0.000902470938559391, No Iterations 13
smoothSolver:  Solving for Uy, Initial residual = 0.03983967333492765, Final residual = 0.003960865048910214, No Iterations 12
smoothSolver:  Solving for Uz, Initial residual = 0.04345676822271191, Final residual = 0.004135374091251379, No Iterations 12
[INFO] MomentumPredictor: 1501.337 [ms]
[INFO] MatrixAssemblyPI: 327.379 [ms]
[INFO] MatrixAssemblyPII: 152.105 [ms]
GAMG:  Solving for p, Initial residual = 0.04395107877771837, Final residual = 0.0002755205442193909, No Iterations 6
[INFO] SolveP: 969.349 [ms]
time step continuity errors : sum local = 0.002254597025135124, global = 2.445581159270103e-05, cumulative = -9.931879911920808e-05
[INFO] postSolveP: 78.70099999999999 [ms]
smoothSolver:  Solving for nuTilda, Initial residual = 0.02511501477912159, Final residual = 0.002219549636021166, No Iterations 3
[INFO] TimeStep: 5806.376 [ms]
ExecutionTime = 173.51 s  ClockTime = 175 s

Time = 22

velocityDampingConstraint velocityDamping damped 0 (0%) of cells, with max limit 300
[INFO] MatrixAssemblyU: 1668.947 [ms]
smoothSolver:  Solving for Ux, Initial residual = 0.010458209499181, Final residual = 0.0008919761914916031, No Iterations 13
smoothSolver:  Solving for Uy, Initial residual = 0.04050404088207137, Final residual = 0.003989466545090471, No Iterations 12
smoothSolver:  Solving for Uz, Initial residual = 0.04344126505535965, Final residual = 0.004101631585692213, No Iterations 12
[INFO] MomentumPredictor: 1498.484 [ms]
[INFO] MatrixAssemblyPI: 326.735 [ms]
[INFO] MatrixAssemblyPII: 154.704 [ms]
GAMG:  Solving for p, Initial residual = 0.04362580465827161, Final residual = 0.000280003001336132, No Iterations 6
[INFO] SolveP: 968.316 [ms]
time step continuity errors : sum local = 0.002326807339524816, global = 2.738322607969345e-05, cumulative = -7.193557303951462e-05
[INFO] postSolveP: 78.652 [ms]
smoothSolver:  Solving for nuTilda, Initial residual = 0.03793983848651066, Final residual = 0.002019037115125543, No Iterations 3
[INFO] TimeStep: 5795.619 [ms]
ExecutionTime = 180.55 s  ClockTime = 182 s

Time = 23

velocityDampingConstraint velocityDamping damped 0 (0%) of cells, with max limit 300
[INFO] MatrixAssemblyU: 1666.661 [ms]
smoothSolver:  Solving for Ux, Initial residual = 0.01032828638255974, Final residual = 0.0008824633886606279, No Iterations 13
smoothSolver:  Solving for Uy, Initial residual = 0.04109468821356426, Final residual = 0.003992789899910716, No Iterations 12
smoothSolver:  Solving for Uz, Initial residual = 0.0430082727844846, Final residual = 0.004017114467774304, No Iterations 12
[INFO] MomentumPredictor: 1500.344 [ms]
[INFO] MatrixAssemblyPI: 328.625 [ms]
[INFO] MatrixAssemblyPII: 151.984 [ms]
GAMG:  Solving for p, Initial residual = 0.04335349672599025, Final residual = 0.0002943998573959583, No Iterations 6
[INFO] SolveP: 969.902 [ms]
time step continuity errors : sum local = 0.00248469182092005, global = 3.254915892601804e-05, cumulative = -3.938641411349659e-05
[INFO] postSolveP: 78.462 [ms]
smoothSolver:  Solving for nuTilda, Initial residual = 0.02332777836015535, Final residual = 0.002088055117070797, No Iterations 3
[INFO] TimeStep: 5796.734 [ms]
ExecutionTime = 187.6 s  ClockTime = 189 s

Time = 24

velocityDampingConstraint velocityDamping damped 0 (0%) of cells, with max limit 300
[INFO] MatrixAssemblyU: 1668.175 [ms]
smoothSolver:  Solving for Ux, Initial residual = 0.01034887399187759, Final residual = 0.001028896171496436, No Iterations 12
smoothSolver:  Solving for Uy, Initial residual = 0.04179606081450456, Final residual = 0.004029131217546394, No Iterations 12
smoothSolver:  Solving for Uz, Initial residual = 0.04257550319743766, Final residual = 0.003939289217393816, No Iterations 12
[INFO] MomentumPredictor: 1471.496 [ms]
[INFO] MatrixAssemblyPI: 326.939 [ms]
[INFO] MatrixAssemblyPII: 154.749 [ms]
GAMG:  Solving for p, Initial residual = 0.04297180295685382, Final residual = 0.0002862030686135364, No Iterations 6
[INFO] SolveP: 968.3869999999999 [ms]
time step continuity errors : sum local = 0.002456344135168028, global = 3.280626613277506e-05, cumulative = -6.58014798072153e-06
[INFO] postSolveP: 78.19 [ms]
smoothSolver:  Solving for nuTilda, Initial residual = 0.03444671665774554, Final residual = 0.001909918025898835, No Iterations 3
[INFO] TimeStep: 5766.973 [ms]
ExecutionTime = 194.62 s  ClockTime = 196 s

Time = 25

velocityDampingConstraint velocityDamping damped 0 (0%) of cells, with max limit 300
[INFO] MatrixAssemblyU: 1666.708 [ms]
smoothSolver:  Solving for Ux, Initial residual = 0.01028998598004985, Final residual = 0.0008802921745812562, No Iterations 13
smoothSolver:  Solving for Uy, Initial residual = 0.04261583800406661, Final residual = 0.004119728837040228, No Iterations 12
smoothSolver:  Solving for Uz, Initial residual = 0.04231179052425754, Final residual = 0.003904020450229296, No Iterations 12
[INFO] MomentumPredictor: 1504.383 [ms]
[INFO] MatrixAssemblyPI: 326.926 [ms]
[INFO] MatrixAssemblyPII: 154.395 [ms]
GAMG:  Solving for p, Initial residual = 0.04228382615154045, Final residual = 0.0002809971911987159, No Iterations 6
[INFO] SolveP: 968.884 [ms]
time step continuity errors : sum local = 0.002454523452334822, global = 3.939816133389647e-05, cumulative = 3.281801335317494e-05
[INFO] postSolveP: 78.441 [ms]
smoothSolver:  Solving for nuTilda, Initial residual = 0.02149161835189134, Final residual = 0.001956983770484532, No Iterations 3
[INFO] TimeStep: 5800.881 [ms]
ExecutionTime = 201.68 s  ClockTime = 203 s

Time = 26

velocityDampingConstraint velocityDamping damped 0 (0%) of cells, with max limit 300
[INFO] MatrixAssemblyU: 1669.71 [ms]
smoothSolver:  Solving for Ux, Initial residual = 0.01036397969785203, Final residual = 0.001032745733431559, No Iterations 12
smoothSolver:  Solving for Uy, Initial residual = 0.04353941563960172, Final residual = 0.004268268844963972, No Iterations 12
smoothSolver:  Solving for Uz, Initial residual = 0.04230131131217659, Final residual = 0.003948069454179135, No Iterations 12
[INFO] MomentumPredictor: 1474.998 [ms]
[INFO] MatrixAssemblyPI: 327.334 [ms]
[INFO] MatrixAssemblyPII: 154.26 [ms]
GAMG:  Solving for p, Initial residual = 0.0418604282621844, Final residual = 0.0002961879038537464, No Iterations 6
[INFO] SolveP: 966.879 [ms]
time step continuity errors : sum local = 0.002621057831304628, global = 4.186807768345341e-05, cumulative = 7.468609103662835e-05
[INFO] postSolveP: 78.556 [ms]
smoothSolver:  Solving for nuTilda, Initial residual = 0.03148084932755393, Final residual = 0.001804273156956116, No Iterations 3
[INFO] TimeStep: 5770.273 [ms]
ExecutionTime = 208.7 s  ClockTime = 210 s

Time = 27

velocityDampingConstraint velocityDamping damped 0 (0%) of cells, with max limit 300
[INFO] MatrixAssemblyU: 1664.831 [ms]
smoothSolver:  Solving for Ux, Initial residual = 0.01036343944702167, Final residual = 0.001034395541055191, No Iterations 12
smoothSolver:  Solving for Uy, Initial residual = 0.04455664855338191, Final residual = 0.004434352405309658, No Iterations 12
smoothSolver:  Solving for Uz, Initial residual = 0.04258816149860326, Final residual = 0.004030757226983153, No Iterations 12
[INFO] MomentumPredictor: 1467.897 [ms]
[INFO] MatrixAssemblyPI: 326.822 [ms]
[INFO] MatrixAssemblyPII: 153.947 [ms]
GAMG:  Solving for p, Initial residual = 0.04207405648612531, Final residual = 0.0003066587593980852, No Iterations 6
[INFO] SolveP: 969.652 [ms]
time step continuity errors : sum local = 0.00275082385596104, global = 4.803555257892107e-05, cumulative = 0.0001227216436155494
[INFO] postSolveP: 79.265 [ms]
smoothSolver:  Solving for nuTilda, Initial residual = 0.0198198841798752, Final residual = 0.001831643893419416, No Iterations 3
[INFO] TimeStep: 5761.766 [ms]
ExecutionTime = 215.72 s  ClockTime = 217 s

Time = 28

velocityDampingConstraint velocityDamping damped 0 (0%) of cells, with max limit 300
[INFO] MatrixAssemblyU: 1665.05 [ms]
smoothSolver:  Solving for Ux, Initial residual = 0.01050800601798762, Final residual = 0.001038032668540302, No Iterations 12
smoothSolver:  Solving for Uy, Initial residual = 0.04589963668796819, Final residual = 0.003934335740221674, No Iterations 13
smoothSolver:  Solving for Uz, Initial residual = 0.0435896977388362, Final residual = 0.004142519693792719, No Iterations 12
[INFO] MomentumPredictor: 1501.185 [ms]
[INFO] MatrixAssemblyPI: 328.932 [ms]
[INFO] MatrixAssemblyPII: 154.506 [ms]
GAMG:  Solving for p, Initial residual = 0.04295828616570042, Final residual = 0.0003097203405871001, No Iterations 6
[INFO] SolveP: 969.53 [ms]
time step continuity errors : sum local = 0.002816274123658426, global = 4.977349112550503e-05, cumulative = 0.0001724951347410545
[INFO] postSolveP: 78.67 [ms]
smoothSolver:  Solving for nuTilda, Initial residual = 0.02894673098624585, Final residual = 0.001697369387218071, No Iterations 3
[INFO] TimeStep: 5793.616 [ms]
ExecutionTime = 222.77 s  ClockTime = 224 s

Time = 29

velocityDampingConstraint velocityDamping damped 0 (0%) of cells, with max limit 300
[INFO] MatrixAssemblyU: 1667.51 [ms]
smoothSolver:  Solving for Ux, Initial residual = 0.01054748737458304, Final residual = 0.001040178852559625, No Iterations 12
smoothSolver:  Solving for Uy, Initial residual = 0.0474697259902835, Final residual = 0.004070612144932236, No Iterations 13
smoothSolver:  Solving for Uz, Initial residual = 0.04502692634427334, Final residual = 0.004282956733747558, No Iterations 12
[INFO] MomentumPredictor: 1505.656 [ms]
[INFO] MatrixAssemblyPI: 327.453 [ms]
[INFO] MatrixAssemblyPII: 152.962 [ms]
GAMG:  Solving for p, Initial residual = 0.04390742387521951, Final residual = 0.0002944575311052523, No Iterations 6
[INFO] SolveP: 968.443 [ms]
time step continuity errors : sum local = 0.002714444421604089, global = 4.925525317945971e-05, cumulative = 0.0002217503879205142
[INFO] postSolveP: 78.262 [ms]
smoothSolver:  Solving for nuTilda, Initial residual = 0.01833643139759469, Final residual = 0.001708310762631787, No Iterations 3
[INFO] TimeStep: 5802.232 [ms]
ExecutionTime = 229.82 s  ClockTime = 232 s

Time = 30

velocityDampingConstraint velocityDamping damped 0 (0%) of cells, with max limit 300
[INFO] MatrixAssemblyU: 1671.463 [ms]
smoothSolver:  Solving for Ux, Initial residual = 0.01074340733383826, Final residual = 0.001046644496978729, No Iterations 12
smoothSolver:  Solving for Uy, Initial residual = 0.04952737691462721, Final residual = 0.004217339580810189, No Iterations 13
smoothSolver:  Solving for Uz, Initial residual = 0.04660964422745903, Final residual = 0.004415670183531658, No Iterations 12
[INFO] MomentumPredictor: 1510.552 [ms]
[INFO] MatrixAssemblyPI: 328.224 [ms]
[INFO] MatrixAssemblyPII: 155.522 [ms]
GAMG:  Solving for p, Initial residual = 0.04478692297803862, Final residual = 0.0002782631778935396, No Iterations 6
[INFO] SolveP: 968.008 [ms]
time step continuity errors : sum local = 0.002601793594910136, global = 4.306239671417799e-05, cumulative = 0.0002648127846346922
[INFO] postSolveP: 78.67100000000001 [ms]
smoothSolver:  Solving for nuTilda, Initial residual = 0.02675937685599858, Final residual = 0.001590378824481836, No Iterations 3
[INFO] TimeStep: 5811.266 [ms]
ExecutionTime = 236.88 s  ClockTime = 239 s

Time = 31

velocityDampingConstraint velocityDamping damped 0 (0%) of cells, with max limit 300
[INFO] MatrixAssemblyU: 1666.25 [ms]
smoothSolver:  Solving for Ux, Initial residual = 0.01081665478085668, Final residual = 0.001053348984235492, No Iterations 12
smoothSolver:  Solving for Uy, Initial residual = 0.05185895167622318, Final residual = 0.005159804228114659, No Iterations 12
smoothSolver:  Solving for Uz, Initial residual = 0.0483141100864994, Final residual = 0.004569113896791814, No Iterations 12
[INFO] MomentumPredictor: 1468.854 [ms]
[INFO] MatrixAssemblyPI: 328.147 [ms]
[INFO] MatrixAssemblyPII: 152.316 [ms]
GAMG:  Solving for p, Initial residual = 0.04600508669033602, Final residual = 0.0002704973010168349, No Iterations 6
[INFO] SolveP: 968.751 [ms]
time step continuity errors : sum local = 0.002560340874336252, global = 3.856319503739185e-05, cumulative = 0.0003033759796720841
[INFO] postSolveP: 78.63500000000001 [ms]
smoothSolver:  Solving for nuTilda, Initial residual = 0.01706843327500804, Final residual = 0.001589924612048711, No Iterations 3
[INFO] TimeStep: 5763.445 [ms]
ExecutionTime = 243.89 s  ClockTime = 246 s

Time = 32

velocityDampingConstraint velocityDamping damped 0 (0%) of cells, with max limit 300
[INFO] MatrixAssemblyU: 1667.461 [ms]
smoothSolver:  Solving for Ux, Initial residual = 0.01094673515456911, Final residual = 0.001060348150020679, No Iterations 12
smoothSolver:  Solving for Uy, Initial residual = 0.05427936641484787, Final residual = 0.00539558046552095, No Iterations 12
smoothSolver:  Solving for Uz, Initial residual = 0.04987498493899112, Final residual = 0.004771179425860254, No Iterations 12
[INFO] MomentumPredictor: 1481.571 [ms]
[INFO] MatrixAssemblyPI: 327.675 [ms]
[INFO] MatrixAssemblyPII: 154.611 [ms]
GAMG:  Solving for p, Initial residual = 0.04759749553862494, Final residual = 0.0002762590303674192, No Iterations 6
[INFO] SolveP: 968.729 [ms]
time step continuity errors : sum local = 0.002640954523426254, global = 3.057610749095402e-05, cumulative = 0.0003339520871630381
[INFO] postSolveP: 79.196 [ms]
smoothSolver:  Solving for nuTilda, Initial residual = 0.02485423097121998, Final residual = 0.001488317645369914, No Iterations 3
[INFO] TimeStep: 5777.344 [ms]
ExecutionTime = 250.92 s  ClockTime = 253 s

Time = 33

velocityDampingConstraint velocityDamping damped 0 (0%) of cells, with max limit 300
[INFO] MatrixAssemblyU: 1664.345 [ms]
smoothSolver:  Solving for Ux, Initial residual = 0.01090690691525134, Final residual = 0.001066691661477804, No Iterations 12
smoothSolver:  Solving for Uy, Initial residual = 0.05661732985712375, Final residual = 0.005623804016763031, No Iterations 12
smoothSolver:  Solving for Uz, Initial residual = 0.05204354920885503, Final residual = 0.00504656416979345, No Iterations 12
[INFO] MomentumPredictor: 1473.785 [ms]
[INFO] MatrixAssemblyPI: 327.421 [ms]
[INFO] MatrixAssemblyPII: 154.199 [ms]
GAMG:  Solving for p, Initial residual = 0.04959494284341393, Final residual = 0.0002880936591637923, No Iterations 6
[INFO] SolveP: 968.484 [ms]
time step continuity errors : sum local = 0.002778455210034317, global = 3.047424653672183e-05, cumulative = 0.0003644263336997599
[INFO] postSolveP: 78.94 [ms]
smoothSolver:  Solving for nuTilda, Initial residual = 0.01598465202901619, Final residual = 0.001480751242699127, No Iterations 3
[INFO] TimeStep: 5764.61 [ms]
ExecutionTime = 257.93 s  ClockTime = 260 s

Time = 34

velocityDampingConstraint velocityDamping damped 0 (0%) of cells, with max limit 300
[INFO] MatrixAssemblyU: 1666.284 [ms]
smoothSolver:  Solving for Ux, Initial residual = 0.01103253741308887, Final residual = 0.001076922202654998, No Iterations 12
smoothSolver:  Solving for Uy, Initial residual = 0.05916563107250291, Final residual = 0.005875220464893373, No Iterations 12
smoothSolver:  Solving for Uz, Initial residual = 0.0545444654824094, Final residual = 0.005340903611503879, No Iterations 12
[INFO] MomentumPredictor: 1477.301 [ms]
[INFO] MatrixAssemblyPI: 327.418 [ms]
[INFO] MatrixAssemblyPII: 154.108 [ms]
GAMG:  Solving for p, Initial residual = 0.05178591722505981, Final residual = 0.0005124631797976804, No Iterations 5
[INFO] SolveP: 820.899 [ms]
time step continuity errors : sum local = 0.004983369242604177, global = 3.760837820959658e-05, cumulative = 0.0004020347119093565
[INFO] postSolveP: 78.723 [ms]
smoothSolver:  Solving for nuTilda, Initial residual = 0.02321201116522381, Final residual = 0.001394340862399252, No Iterations 3
[INFO] TimeStep: 5621.98 [ms]
ExecutionTime = 264.81 s  ClockTime = 267 s

Time = 35

velocityDampingConstraint velocityDamping damped 0 (0%) of cells, with max limit 300
[INFO] MatrixAssemblyU: 1664.651 [ms]
smoothSolver:  Solving for Ux, Initial residual = 0.01110012114503534, Final residual = 0.001090066742725671, No Iterations 12
smoothSolver:  Solving for Uy, Initial residual = 0.06167754734271708, Final residual = 0.006164130417589141, No Iterations 12
smoothSolver:  Solving for Uz, Initial residual = 0.05707915507399366, Final residual = 0.005606374483652398, No Iterations 12
[INFO] MomentumPredictor: 1467.226 [ms]
[INFO] MatrixAssemblyPI: 327.636 [ms]
[INFO] MatrixAssemblyPII: 154.224 [ms]
GAMG:  Solving for p, Initial residual = 0.05363683838695434, Final residual = 0.000522371155679733, No Iterations 5
[INFO] SolveP: 820.468 [ms]
time step continuity errors : sum local = 0.005126586771756631, global = 4.112878521052911e-05, cumulative = 0.0004431634971198856
[INFO] postSolveP: 78.413 [ms]
smoothSolver:  Solving for nuTilda, Initial residual = 0.01502069671057047, Final residual = 0.001383040175689065, No Iterations 3
[INFO] TimeStep: 5609.668 [ms]
ExecutionTime = 271.67 s  ClockTime = 274 s

Time = 36

velocityDampingConstraint velocityDamping damped 0 (0%) of cells, with max limit 300
[INFO] MatrixAssemblyU: 1662.222 [ms]
smoothSolver:  Solving for Ux, Initial residual = 0.01137615534921469, Final residual = 0.001111283195201905, No Iterations 12
smoothSolver:  Solving for Uy, Initial residual = 0.06391859612738404, Final residual = 0.005529979145835326, No Iterations 13
smoothSolver:  Solving for Uz, Initial residual = 0.05971738961899994, Final residual = 0.005861016538609421, No Iterations 12
[INFO] MomentumPredictor: 1509.647 [ms]
[INFO] MatrixAssemblyPI: 327.335 [ms]
[INFO] MatrixAssemblyPII: 155.161 [ms]
GAMG:  Solving for p, Initial residual = 0.0551430548295719, Final residual = 0.0004866702403163925, No Iterations 5
[INFO] SolveP: 821.0839999999999 [ms]
time step continuity errors : sum local = 0.004808921474148793, global = 4.051758937626837e-05, cumulative = 0.000483681086496154
[INFO] postSolveP: 79.11499999999999 [ms]
smoothSolver:  Solving for nuTilda, Initial residual = 0.02179502303985506, Final residual = 0.001308167038822586, No Iterations 3
[INFO] TimeStep: 5651.463 [ms]
ExecutionTime = 278.57 s  ClockTime = 281 s

Time = 37

velocityDampingConstraint velocityDamping damped 0 (0%) of cells, with max limit 300
[INFO] MatrixAssemblyU: 1664.052 [ms]
smoothSolver:  Solving for Ux, Initial residual = 0.01159352537221546, Final residual = 0.00113794339645977, No Iterations 12
smoothSolver:  Solving for Uy, Initial residual = 0.06563353427150992, Final residual = 0.005764595827682974, No Iterations 13
smoothSolver:  Solving for Uz, Initial residual = 0.06236581781798021, Final residual = 0.006092954319933077, No Iterations 12
[INFO] MomentumPredictor: 1506.572 [ms]
[INFO] MatrixAssemblyPI: 326.557 [ms]
[INFO] MatrixAssemblyPII: 155.224 [ms]
GAMG:  Solving for p, Initial residual = 0.05692372559386873, Final residual = 0.0004739018403205613, No Iterations 5
[INFO] SolveP: 823.322 [ms]
time step continuity errors : sum local = 0.004716397013596816, global = 3.484995168684504e-05, cumulative = 0.000518531038182999
[INFO] postSolveP: 78.277 [ms]
smoothSolver:  Solving for nuTilda, Initial residual = 0.01419703735647559, Final residual = 0.001295904561508911, No Iterations 3
[INFO] TimeStep: 5652.114 [ms]
ExecutionTime = 285.47 s  ClockTime = 287 s

Time = 38

velocityDampingConstraint velocityDamping damped 0 (0%) of cells, with max limit 300
[INFO] MatrixAssemblyU: 1662.804 [ms]
smoothSolver:  Solving for Ux, Initial residual = 0.01190907159923529, Final residual = 0.0011610466943371, No Iterations 12
smoothSolver:  Solving for Uy, Initial residual = 0.06709332540335454, Final residual = 0.005943350391804983, No Iterations 13
smoothSolver:  Solving for Uz, Initial residual = 0.06513302797348125, Final residual = 0.006293781881078779, No Iterations 12
[INFO] MomentumPredictor: 1505.357 [ms]
[INFO] MatrixAssemblyPI: 327.737 [ms]
[INFO] MatrixAssemblyPII: 153.165 [ms]
GAMG:  Solving for p, Initial residual = 0.05770860594077932, Final residual = 0.0004879508042970736, No Iterations 5
[INFO] SolveP: 821.569 [ms]
time step continuity errors : sum local = 0.004884373277709212, global = 2.088031909357579e-05, cumulative = 0.0005394113572765748
[INFO] postSolveP: 78.93000000000001 [ms]
smoothSolver:  Solving for nuTilda, Initial residual = 0.02056563742188908, Final residual = 0.001232373594007617, No Iterations 3
[INFO] TimeStep: 5647.227 [ms]
ExecutionTime = 292.36 s  ClockTime = 294 s

Time = 39

velocityDampingConstraint velocityDamping damped 0 (0%) of cells, with max limit 300
[INFO] MatrixAssemblyU: 1660.129 [ms]
smoothSolver:  Solving for Ux, Initial residual = 0.01200086433018741, Final residual = 0.001173800827790973, No Iterations 12
smoothSolver:  Solving for Uy, Initial residual = 0.06854368164335635, Final residual = 0.006105199003895908, No Iterations 13
smoothSolver:  Solving for Uz, Initial residual = 0.06760887727352459, Final residual = 0.00651160892486493, No Iterations 12
[INFO] MomentumPredictor: 1502.39 [ms]
[INFO] MatrixAssemblyPI: 327.36 [ms]
[INFO] MatrixAssemblyPII: 153.657 [ms]
GAMG:  Solving for p, Initial residual = 0.05792100480368607, Final residual = 0.0005143587229519571, No Iterations 5
[INFO] SolveP: 820.701 [ms]
time step continuity errors : sum local = 0.005168606316718101, global = 1.196257715222447e-05, cumulative = 0.0005513739344287993
[INFO] postSolveP: 78.145 [ms]
smoothSolver:  Solving for nuTilda, Initial residual = 0.01353056199072488, Final residual = 0.00122179849841549, No Iterations 3
[INFO] TimeStep: 5639.63 [ms]
ExecutionTime = 299.25 s  ClockTime = 301 s

Time = 40

velocityDampingConstraint velocityDamping damped 0 (0%) of cells, with max limit 300
[INFO] MatrixAssemblyU: 1659.017 [ms]
smoothSolver:  Solving for Ux, Initial residual = 0.01213492788425027, Final residual = 0.001183664500135069, No Iterations 12
smoothSolver:  Solving for Uy, Initial residual = 0.06961951754150372, Final residual = 0.006257193265047883, No Iterations 13
smoothSolver:  Solving for Uz, Initial residual = 0.06932660425556229, Final residual = 0.006739082720543383, No Iterations 12
[INFO] MomentumPredictor: 1500.168 [ms]
[INFO] MatrixAssemblyPI: 327.943 [ms]
[INFO] MatrixAssemblyPII: 153.486 [ms]
GAMG:  Solving for p, Initial residual = 0.05806296269951208, Final residual = 0.0005245888551532408, No Iterations 5
[INFO] SolveP: 820.323 [ms]
time step continuity errors : sum local = 0.005276023814394907, global = 1.712926353400906e-06, cumulative = 0.0005530868607822002
[INFO] postSolveP: 78.73999999999999 [ms]
smoothSolver:  Solving for nuTilda, Initial residual = 0.01946100762025025, Final residual = 0.001168338062053288, No Iterations 3
[INFO] TimeStep: 5636.3 [ms]
ExecutionTime = 306.13 s  ClockTime = 308 s

Time = 41

velocityDampingConstraint velocityDamping damped 0 (0%) of cells, with max limit 300
[INFO] MatrixAssemblyU: 1667.823 [ms]
smoothSolver:  Solving for Ux, Initial residual = 0.0120571416253694, Final residual = 0.001192019559811133, No Iterations 12
smoothSolver:  Solving for Uy, Initial residual = 0.07015089800457673, Final residual = 0.006400984973327073, No Iterations 13
smoothSolver:  Solving for Uz, Initial residual = 0.0703807401624357, Final residual = 0.006927310747656681, No Iterations 12
[INFO] MomentumPredictor: 1502.136 [ms]
[INFO] MatrixAssemblyPI: 326.343 [ms]
[INFO] MatrixAssemblyPII: 156.176 [ms]
GAMG:  Solving for p, Initial residual = 0.0575076873951204, Final residual = 0.0004874450127450421, No Iterations 5
[INFO] SolveP: 821.343 [ms]
time step continuity errors : sum local = 0.004903110063495816, global = -2.50424317860389e-06, cumulative = 0.0005505826176035964
[INFO] postSolveP: 78.64 [ms]
smoothSolver:  Solving for nuTilda, Initial residual = 0.01294433341408497, Final residual = 0.001159600342514272, No Iterations 3
[INFO] TimeStep: 5646.897 [ms]
ExecutionTime = 313.03 s  ClockTime = 315 s

Time = 42

velocityDampingConstraint velocityDamping damped 0 (0%) of cells, with max limit 300
[INFO] MatrixAssemblyU: 1663.437 [ms]
smoothSolver:  Solving for Ux, Initial residual = 0.01209849596751746, Final residual = 0.001198860870128585, No Iterations 12
smoothSolver:  Solving for Uy, Initial residual = 0.07062241720225733, Final residual = 0.006583485733190252, No Iterations 13
smoothSolver:  Solving for Uz, Initial residual = 0.07091193189712336, Final residual = 0.006031621782745617, No Iterations 13
[INFO] MomentumPredictor: 1537.52 [ms]
[INFO] MatrixAssemblyPI: 327.417 [ms]
[INFO] MatrixAssemblyPII: 152.925 [ms]
GAMG:  Solving for p, Initial residual = 0.05712956764219241, Final residual = 0.0004608431478776457, No Iterations 5
[INFO] SolveP: 818.763 [ms]
time step continuity errors : sum local = 0.004626682789492652, global = -9.994571252533112e-06, cumulative = 0.0005405880463510632
[INFO] postSolveP: 78.352 [ms]
smoothSolver:  Solving for nuTilda, Initial residual = 0.01845146714449361, Final residual = 0.001113044112641, No Iterations 3
[INFO] TimeStep: 5673.291 [ms]
ExecutionTime = 319.95 s  ClockTime = 322 s

Time = 43

velocityDampingConstraint velocityDamping damped 0 (0%) of cells, with max limit 300
[INFO] MatrixAssemblyU: 1660.392 [ms]
smoothSolver:  Solving for Ux, Initial residual = 0.0120071158667095, Final residual = 0.001026951457490209, No Iterations 13
smoothSolver:  Solving for Uy, Initial residual = 0.07135759460548712, Final residual = 0.006800765624842567, No Iterations 13
smoothSolver:  Solving for Uz, Initial residual = 0.07059873125915202, Final residual = 0.006122588671477569, No Iterations 13
[INFO] MomentumPredictor: 1571.301 [ms]
[INFO] MatrixAssemblyPI: 328.389 [ms]
[INFO] MatrixAssemblyPII: 154.145 [ms]
GAMG:  Solving for p, Initial residual = 0.05646763688051254, Final residual = 0.0004657806839112916, No Iterations 5
[INFO] SolveP: 820.843 [ms]
time step continuity errors : sum local = 0.004655182135098518, global = -1.555218944407778e-05, cumulative = 0.0005250358569069854
[INFO] postSolveP: 78.905 [ms]
smoothSolver:  Solving for nuTilda, Initial residual = 0.01236103555852217, Final residual = 0.001103477956214602, No Iterations 3
[INFO] TimeStep: 5709.793 [ms]
ExecutionTime = 326.9 s  ClockTime = 329 s

Time = 44

velocityDampingConstraint velocityDamping damped 0 (0%) of cells, with max limit 300
[INFO] MatrixAssemblyU: 1659.332 [ms]
smoothSolver:  Solving for Ux, Initial residual = 0.0120256173469339, Final residual = 0.001035113347509879, No Iterations 13
smoothSolver:  Solving for Uy, Initial residual = 0.07182369813718779, Final residual = 0.007001530877733824, No Iterations 13
smoothSolver:  Solving for Uz, Initial residual = 0.0700548081413622, Final residual = 0.006205460424656637, No Iterations 13
[INFO] MomentumPredictor: 1576.848 [ms]
[INFO] MatrixAssemblyPI: 326.843 [ms]
[INFO] MatrixAssemblyPII: 154.901 [ms]
GAMG:  Solving for p, Initial residual = 0.05597444657239111, Final residual = 0.0004762026413906304, No Iterations 5
[INFO] SolveP: 820.538 [ms]
time step continuity errors : sum local = 0.00471397771913696, global = -1.662778667898911e-05, cumulative = 0.0005084080702279964
[INFO] postSolveP: 78.608 [ms]
smoothSolver:  Solving for nuTilda, Initial residual = 0.01751106023308946, Final residual = 0.001061043053399878, No Iterations 3
[INFO] TimeStep: 5711.586 [ms]
ExecutionTime = 333.85 s  ClockTime = 336 s

Time = 45

velocityDampingConstraint velocityDamping damped 0 (0%) of cells, with max limit 300
[INFO] MatrixAssemblyU: 1663.765 [ms]
smoothSolver:  Solving for Ux, Initial residual = 0.01189344276581169, Final residual = 0.001043337407542942, No Iterations 13
smoothSolver:  Solving for Uy, Initial residual = 0.07194823598377924, Final residual = 0.007129399451626275, No Iterations 13
smoothSolver:  Solving for Uz, Initial residual = 0.06928400529775273, Final residual = 0.006273537542065709, No Iterations 13
[INFO] MomentumPredictor: 1571.673 [ms]
[INFO] MatrixAssemblyPI: 328.027 [ms]
[INFO] MatrixAssemblyPII: 154.272 [ms]
GAMG:  Solving for p, Initial residual = 0.0555827290641242, Final residual = 0.0004842957710318729, No Iterations 5
[INFO] SolveP: 821.2910000000001 [ms]
time step continuity errors : sum local = 0.004727335143738667, global = -4.294235161519767e-06, cumulative = 0.0005041138350664766
[INFO] postSolveP: 78.878 [ms]
smoothSolver:  Solving for nuTilda, Initial residual = 0.01180150545010078, Final residual = 0.001049833508212601, No Iterations 3
[INFO] TimeStep: 5713.134 [ms]
ExecutionTime = 340.81 s  ClockTime = 343 s

Time = 46

velocityDampingConstraint velocityDamping damped 0 (0%) of cells, with max limit 300
[INFO] MatrixAssemblyU: 1657.442 [ms]
smoothSolver:  Solving for Ux, Initial residual = 0.01176947714225021, Final residual = 0.001047378792425299, No Iterations 13
smoothSolver:  Solving for Uy, Initial residual = 0.07195159881269868, Final residual = 0.006149480133780682, No Iterations 14
smoothSolver:  Solving for Uz, Initial residual = 0.06806694163162993, Final residual = 0.006329859596348348, No Iterations 13
[INFO] MomentumPredictor: 1603.011 [ms]
[INFO] MatrixAssemblyPI: 326.526 [ms]
[INFO] MatrixAssemblyPII: 154.025 [ms]
GAMG:  Solving for p, Initial residual = 0.0549584575959824, Final residual = 0.0004726627617820453, No Iterations 5
[INFO] SolveP: 821.377 [ms]
time step continuity errors : sum local = 0.004565807366562805, global = 1.313273786220568e-05, cumulative = 0.0005172465729286823
[INFO] postSolveP: 79.062 [ms]
smoothSolver:  Solving for nuTilda, Initial residual = 0.01662774810991029, Final residual = 0.001011909556851985, No Iterations 3
[INFO] TimeStep: 5737.906 [ms]
ExecutionTime = 347.8 s  ClockTime = 350 s

Time = 47

velocityDampingConstraint velocityDamping damped 0 (0%) of cells, with max limit 300
[INFO] MatrixAssemblyU: 1655.993 [ms]
smoothSolver:  Solving for Ux, Initial residual = 0.01153130637496911, Final residual = 0.001052663314391353, No Iterations 13
smoothSolver:  Solving for Uy, Initial residual = 0.07166649966368752, Final residual = 0.006153923908298328, No Iterations 14
smoothSolver:  Solving for Uz, Initial residual = 0.06676155820776815, Final residual = 0.006374018014413011, No Iterations 13
[INFO] MomentumPredictor: 1607.364 [ms]
[INFO] MatrixAssemblyPI: 327.002 [ms]
[INFO] MatrixAssemblyPII: 154.148 [ms]
GAMG:  Solving for p, Initial residual = 0.05425463751363414, Final residual = 0.0004632123464331657, No Iterations 5
[INFO] SolveP: 820.039 [ms]
time step continuity errors : sum local = 0.004445266870465018, global = 3.263504914691495e-05, cumulative = 0.0005498816220755973
[INFO] postSolveP: 78.99299999999999 [ms]
smoothSolver:  Solving for nuTilda, Initial residual = 0.01127664885911601, Final residual = 0.001001969173284983, No Iterations 3
[INFO] TimeStep: 5741.282 [ms]
ExecutionTime = 354.78 s  ClockTime = 357 s

Time = 48

velocityDampingConstraint velocityDamping damped 0 (0%) of cells, with max limit 300
[INFO] MatrixAssemblyU: 1655.924 [ms]
smoothSolver:  Solving for Ux, Initial residual = 0.01149106398505808, Final residual = 0.001058208780525403, No Iterations 13
smoothSolver:  Solving for Uy, Initial residual = 0.07135163213213072, Final residual = 0.006149056933812521, No Iterations 14
smoothSolver:  Solving for Uz, Initial residual = 0.0655878318215604, Final residual = 0.00636531160210649, No Iterations 13
[INFO] MomentumPredictor: 1602.844 [ms]
[INFO] MatrixAssemblyPI: 328.44 [ms]
[INFO] MatrixAssemblyPII: 152.493 [ms]
GAMG:  Solving for p, Initial residual = 0.0533878767804217, Final residual = 0.0004611851375841125, No Iterations 5
[INFO] SolveP: 823.175 [ms]
time step continuity errors : sum local = 0.004394375280387224, global = 3.462425170223098e-05, cumulative = 0.0005845058737778283
[INFO] postSolveP: 78.66800000000001 [ms]
smoothSolver:  Solving for nuTilda, Initial residual = 0.01584059809635916, Final residual = 0.0009705068858118989, No Iterations 3
[INFO] TimeStep: 5737.677 [ms]
ExecutionTime = 361.76 s  ClockTime = 364 s

Time = 49

velocityDampingConstraint velocityDamping damped 0 (0%) of cells, with max limit 300
[INFO] MatrixAssemblyU: 1656.461 [ms]
smoothSolver:  Solving for Ux, Initial residual = 0.01138569651169507, Final residual = 0.001062324507804811, No Iterations 13
smoothSolver:  Solving for Uy, Initial residual = 0.07074247469697427, Final residual = 0.006126197199465309, No Iterations 14
smoothSolver:  Solving for Uz, Initial residual = 0.06455709337145171, Final residual = 0.006337932666496322, No Iterations 13
[INFO] MomentumPredictor: 1603.302 [ms]
[INFO] MatrixAssemblyPI: 327.609 [ms]
[INFO] MatrixAssemblyPII: 154.73 [ms]
GAMG:  Solving for p, Initial residual = 0.05273192109945187, Final residual = 0.0004718195078063507, No Iterations 5
[INFO] SolveP: 819.804 [ms]
time step continuity errors : sum local = 0.004468228343387634, global = 2.43569511511313e-05, cumulative = 0.0006088628249289596
[INFO] postSolveP: 78.925 [ms]
smoothSolver:  Solving for nuTilda, Initial residual = 0.01083771804974885, Final residual = 0.0009640317926776874, No Iterations 3
[INFO] TimeStep: 5733.675 [ms]
ExecutionTime = 368.74 s  ClockTime = 371 s

Time = 50

velocityDampingConstraint velocityDamping damped 0 (0%) of cells, with max limit 300
[INFO] MatrixAssemblyU: 1662.099 [ms]
smoothSolver:  Solving for Ux, Initial residual = 0.01138761945731992, Final residual = 0.001063983834987591, No Iterations 13
smoothSolver:  Solving for Uy, Initial residual = 0.06980280415684471, Final residual = 0.006059419815942389, No Iterations 14
smoothSolver:  Solving for Uz, Initial residual = 0.06359454401171843, Final residual = 0.0062979722214328, No Iterations 13
[INFO] MomentumPredictor: 1602.34 [ms]
[INFO] MatrixAssemblyPI: 327.594 [ms]
[INFO] MatrixAssemblyPII: 156.13 [ms]
GAMG:  Solving for p, Initial residual = 0.05249283793164629, Final residual = 0.0004813010529313222, No Iterations 5
[INFO] SolveP: 819.806 [ms]
time step continuity errors : sum local = 0.0045245471275934, global = 8.290472431025824e-06, cumulative = 0.0006171532973599854
[INFO] postSolveP: 79.203 [ms]
smoothSolver:  Solving for nuTilda, Initial residual = 0.01515776375677461, Final residual = 0.000938196733931624, No Iterations 3
[INFO] TimeStep: 5739.385 [ms]
ExecutionTime = 375.72 s  ClockTime = 378 s

End

Finalising parallel run
