/*---------------------------------------------------------------------------*\
| =========                 |                                                 |
| \\      /  F ield         | OpenFOAM: The Open Source CFD Toolbox           |
|  \\    /   O peration     | Version:  v2106                                 |
|   \\  /    A nd           | Website:  www.openfoam.com                      |
|    \\/     M anipulation  |                                                 |
\*---------------------------------------------------------------------------*/
Build  : f815a12bba-20210902 OPENFOAM=2106
Arch   : "LSB;label=32;scalar=64"
Exec   : icoFoam -parallel -case /home/greole/data/code/micro_benchmarks/LidDrivenCavity3D/workspace/a5f183dcc55b601bb518c4119943af53/case
Date   : Mar 06 2023
Time   : 01:34:28
Host   : nla-gpu2.ianm.kit.edu
PID    : 2122135
I/O    : uncollated
Case   : /home/greole/data/code/micro_benchmarks/LidDrivenCavity3D/workspace/a5f183dcc55b601bb518c4119943af53/case
nProcs : 8
Hosts  :
(
    (nla-gpu2.ianm.kit.edu 8)
)
Pstream initialized with:
    floatTransfer      : 0
    nProcsSimpleSum    : 0
    commsType          : nonBlocking
    polling iterations : 0
trapFpe: Floating point exception trapping enabled (FOAM_SIGFPE).
fileModificationChecking : Monitoring run-time modified files using timeStampMaster (fileModificationSkew 5, maxFileModificationPolls 20)
allowSystemOperations : Allowing user-supplied system call operations

// * * * * * * * * * * * * * * * * * * * * * * * * * * * * * * * * * * * * * //
Create time

--> FOAM Warning : 
    From virtual void Foam::Time::readDict()
    in file db/Time/TimeIO.C at line 411
    Reading "/home/greole/data/code/micro_benchmarks/LidDrivenCavity3D/workspace/a5f183dcc55b601bb518c4119943af53/case/system/controlDict" at line 17 to 47
    Disabled binary format compression (inefficient/ineffective)
Create mesh for time = 0


PISO: Operating solver in PISO mode

Reading transportProperties

Reading field p

Reading field U

Reading/calculating face flux field phi


Starting time loop

Time = 0.0005

Courant Number mean: 8.62851e-18 max: 8.67362e-15
[INFO] MatrixAssemblyU: 32.201 [ms]
DILUPBiCGStab:  Solving for Ux, Initial residual = 1, Final residual = 0.0025649, No Iterations 5
DILUPBiCGStab:  Solving for Uy:  solution singularity
DILUPBiCGStab:  Solving for Uz:  solution singularity
linear solve U 92.598 [ms]
[INFO] MomentumPredictor: 107.879 [ms]
[INFO] MatrixAssemblyPI: 34.8 [ms]
[INFO] AdjustPhi: 1.079 [ms]
[INFO] ConstrainPressure: 0.004 [ms]
[INFO] MatrixAssemblyPII: 12.413 [ms]
[OGL LOG][lduLduBase.H:121] Initialising OGL
	OGL commit:  84e53c6+
	Branch: HEAD 
	Build type: Debug
	Ginkgo version: 1.5.0 ( develop)
	Ginkgo commit: 6b441077b
	MPI is GPU aware: 0
	Forces host buffer based communication: 1
	CPU ranks per GPU: 1
	Matrix format: Coo
	End OGL_INFO
[OGL LOG][Proc: 0]: global_index_init: 65.796 [ms]
[OGL LOG][Proc: 0]p_local_cols: call_init: 0.258 [ms]
[OGL LOG][Proc: 0]p_local_rows: call_init: 0.018 [ms]
[OGL LOG][Proc: 0]p_local_ldu_map: call_init: 0.008 [ms]
[OGL LOG][Proc: 0]p_local_coeffs: call_init: 0.121 [ms]
[OGL LOG][Proc: 0]p_non_local_cols: call_init: 0.006 [ms]
[OGL LOG][Proc: 0]p_non_local_rows: call_init: 0.004 [ms]
[OGL LOG][Proc: 0]p_non_local_ldu_map: call_init: 0.004 [ms]
[OGL LOG][Proc: 0]p_non_local_coeffs: call_init: 0.005 [ms]
[OGL LOG][Proc: 0]p: init_local_sparsity_pattern: 175.701 [ms]
[OGL LOG][Proc: 0]p: init_non_local_sparsity_pattern: 35.351 [ms]
[OGL LOG][Proc: 0]p: update_local_matrix_data: 8.022 [ms]
[OGL LOG][Proc: 0]p: update_non_local_matrix_data: 30.926 [ms]
[OGL LOG][Proc: 0]device_partition: call_init: 3.663 [ms]
[OGL LOG][Proc: 0]p_matrix: call_init: 79.947 [ms]
[OGL LOG][Proc: 0]p_rhs: call_init: 0.655 [ms]
[OGL LOG][Proc: 0]p_solution: call_init: 0.411 [ms]
[OGL LOG][Proc: 0]p: init_precond: 0.114 [ms]
[OGL LOG][StoppingCriterion.H:372] Creating stopping criterion with minIter 0 frequency 1
[OGL LOG][Proc: 0]p: generate_solver: 0.378 [ms]
[OGL LOG][Proc: 0]p: solve: 738.561 [ms]
[OGL LOG][Proc: 0]p: copy_x_back: 0.505 [ms]
[OGL LOG][lduLduBase.H:319] 
Statistics:
	Time per iteration: 931 [mu s]
	Time per residual norm calculation: 2410.000000 [mu s]
	Time per iteration and DOF: 0.931000 [ns]
	Retrieve results bandwith 1.980000 [GByte/s]
[OGL LOG][Proc: 0]p: solve_multi_gpu: 825.73 [ms]
nonehipGKOCG:  Solving for p, Initial residual = 1, Final residual = 9.98822e-05, No Iterations 793
linear solve p 1725.46 [ms]
[INFO] SolveP: 1725.48 [ms]
time step continuity errors : sum local = 2.14462e-08, global = 4.63289e-21, cumulative = 4.63289e-21
[INFO] ContinuityError: 6.879 [ms]
[INFO] CorrectBoundary: 0.423 [ms]
[INFO] PISOStep: 1798.67 [ms]
[INFO] MatrixAssemblyPI: 32.007 [ms]
[INFO] AdjustPhi: 2.058 [ms]
[INFO] ConstrainPressure: 0.002 [ms]
[INFO] MatrixAssemblyPII: 10.878 [ms]
[OGL LOG][Proc: 0]: global_index_init: 0.059 [ms]
[OGL LOG][Proc: 0]p_local_coeffs: call_update: 0.004 [ms]
[OGL LOG][Proc: 0]p_non_local_coeffs: call_update: 0 [ms]
[OGL LOG][Proc: 0]p: update_local_matrix_data: 7.93 [ms]
[OGL LOG][Proc: 0]p: update_non_local_matrix_data: 0.478 [ms]
[OGL LOG][Proc: 0]p_matrix: call_update: 2.8 [ms]
[OGL LOG][Proc: 0]p_rhs: call_update: 0.527 [ms]
[OGL LOG][Proc: 0]p: init_precond: 0.062 [ms]
[OGL LOG][StoppingCriterion.H:372] Creating stopping criterion with minIter 0 frequency 1
[OGL LOG][Proc: 0]p: generate_solver: 0.018 [ms]
[OGL LOG][Proc: 0]p: solve: 713.14 [ms]
[OGL LOG][Proc: 0]p: copy_x_back: 0.485 [ms]
[OGL LOG][lduLduBase.H:319] 
Statistics:
	Time per iteration: 911 [mu s]
	Time per residual norm calculation: 229.000000 [mu s]
	Time per iteration and DOF: 0.911000 [ns]
	Retrieve results bandwith 2.061000 [GByte/s]
[OGL LOG][Proc: 0]p: solve_multi_gpu: 717.406 [ms]
nonehipGKOCG:  Solving for p, Initial residual = 0.731052, Final residual = 9.89112e-05, No Iterations 782
linear solve p 727.384 [ms]
[INFO] SolveP: 727.416 [ms]
time step continuity errors : sum local = 2.80453e-08, global = 1.27973e-21, cumulative = 5.91262e-21
[INFO] ContinuityError: 4.804 [ms]
[INFO] CorrectBoundary: 0.319 [ms]
[INFO] PISOStep: 793.52 [ms]
[INFO] TimeStep: 2739.4 [ms]
ExecutionTime = 2.97 s  ClockTime = 3 s

Time = 0.001

Courant Number mean: 0.0215341 max: 0.377097
[INFO] MatrixAssemblyU: 25.184 [ms]
DILUPBiCGStab:  Solving for Ux, Initial residual = 0.150351, Final residual = 0.00113128, No Iterations 5
DILUPBiCGStab:  Solving for Uy, Initial residual = 0.368162, Final residual = 0.00224404, No Iterations 5
DILUPBiCGStab:  Solving for Uz, Initial residual = 0.988636, Final residual = 0.00605697, No Iterations 5
linear solve U 193.456 [ms]
[INFO] MomentumPredictor: 201.506 [ms]
[INFO] MatrixAssemblyPI: 28.686 [ms]
[INFO] AdjustPhi: 4.783 [ms]
[INFO] ConstrainPressure: 0.003 [ms]
[INFO] MatrixAssemblyPII: 9.459 [ms]
[OGL LOG][Proc: 0]: global_index_init: 0.091 [ms]
[OGL LOG][Proc: 0]p_local_coeffs: call_update: 0 [ms]
[OGL LOG][Proc: 0]p_non_local_coeffs: call_update: 0 [ms]
[OGL LOG][Proc: 0]p: update_local_matrix_data: 7.831 [ms]
[OGL LOG][Proc: 0]p: update_non_local_matrix_data: 0.467 [ms]
[OGL LOG][Proc: 0]p_matrix: call_update: 2.147 [ms]
[OGL LOG][Proc: 0]p_rhs: call_update: 1.622 [ms]
[OGL LOG][Proc: 0]p: init_precond: 0.041 [ms]
[OGL LOG][StoppingCriterion.H:372] Creating stopping criterion with minIter 469 frequency 10
[OGL LOG][Proc: 0]p: generate_solver: 0.023 [ms]
[OGL LOG][Proc: 0]p: solve: 496.651 [ms]
[OGL LOG][Proc: 0]p: copy_x_back: 0.512 [ms]
[OGL LOG][lduLduBase.H:319] 
Statistics:
	Time per iteration: 635 [mu s]
	Time per residual norm calculation: 221.000000 [mu s]
	Time per iteration and DOF: 0.635000 [ns]
	Retrieve results bandwith 1.953000 [GByte/s]
[OGL LOG][Proc: 0]p: solve_multi_gpu: 501.35 [ms]
nonehipGKOCG:  Solving for p, Initial residual = 0.690613, Final residual = 7.52263e-05, No Iterations 781
linear solve p 510.936 [ms]
[INFO] SolveP: 510.967 [ms]
time step continuity errors : sum local = 2.38687e-08, global = -3.02128e-21, cumulative = 2.89134e-21
[INFO] ContinuityError: 4.88 [ms]
[INFO] CorrectBoundary: 0.081 [ms]
[INFO] PISOStep: 572.84 [ms]
[INFO] MatrixAssemblyPI: 29.807 [ms]
[INFO] AdjustPhi: 0.816 [ms]
[INFO] ConstrainPressure: 0.002 [ms]
[INFO] MatrixAssemblyPII: 9.974 [ms]
[OGL LOG][Proc: 0]: global_index_init: 0.01 [ms]
[OGL LOG][Proc: 0]p_local_coeffs: call_update: 0 [ms]
[OGL LOG][Proc: 0]p_non_local_coeffs: call_update: 0 [ms]
[OGL LOG][Proc: 0]p: update_local_matrix_data: 7.13 [ms]
[OGL LOG][Proc: 0]p: update_non_local_matrix_data: 0.473 [ms]
[OGL LOG][Proc: 0]p_matrix: call_update: 2.178 [ms]
[OGL LOG][Proc: 0]p_rhs: call_update: 0.419 [ms]
[OGL LOG][Proc: 0]p: init_precond: 0.041 [ms]
[OGL LOG][StoppingCriterion.H:372] Creating stopping criterion with minIter 468 frequency 12
[OGL LOG][Proc: 0]p: generate_solver: 0.023 [ms]
[OGL LOG][Proc: 0]p: solve: 545.605 [ms]
[OGL LOG][Proc: 0]p: copy_x_back: 0.6 [ms]
[OGL LOG][lduLduBase.H:319] 
Statistics:
	Time per iteration: 698 [mu s]
	Time per residual norm calculation: 219.000000 [mu s]
	Time per iteration and DOF: 0.698000 [ns]
	Retrieve results bandwith 1.666000 [GByte/s]
[OGL LOG][Proc: 0]p: solve_multi_gpu: 549.161 [ms]
nonehipGKOCG:  Solving for p, Initial residual = 0.619791, Final residual = 6.76311e-05, No Iterations 781
linear solve p 557.931 [ms]
[INFO] SolveP: 557.954 [ms]
time step continuity errors : sum local = 2.18865e-08, global = -4.72758e-21, cumulative = -1.83624e-21
[INFO] ContinuityError: 3.081 [ms]
[INFO] CorrectBoundary: 0.352 [ms]
[INFO] PISOStep: 616.23 [ms]
[INFO] TimeStep: 1421.81 [ms]
ExecutionTime = 4.37 s  ClockTime = 5 s

Time = 0.0015

Courant Number mean: 0.0324926 max: 0.441243
[INFO] MatrixAssemblyU: 22.871 [ms]
DILUPBiCGStab:  Solving for Ux, Initial residual = 0.0531065, Final residual = 0.00032643, No Iterations 5
DILUPBiCGStab:  Solving for Uy, Initial residual = 0.12468, Final residual = 0.000558071, No Iterations 5
DILUPBiCGStab:  Solving for Uz, Initial residual = 0.575457, Final residual = 0.00311915, No Iterations 5
linear solve U 162.867 [ms]
[INFO] MomentumPredictor: 176.569 [ms]
[INFO] MatrixAssemblyPI: 24.535 [ms]
[INFO] AdjustPhi: 2.929 [ms]
[INFO] ConstrainPressure: 0.002 [ms]
[INFO] MatrixAssemblyPII: 10.075 [ms]
[OGL LOG][Proc: 0]: global_index_init: 0.044 [ms]
[OGL LOG][Proc: 0]p_local_coeffs: call_update: 0 [ms]
[OGL LOG][Proc: 0]p_non_local_coeffs: call_update: 0 [ms]
[OGL LOG][Proc: 0]p: update_local_matrix_data: 7.936 [ms]
[OGL LOG][Proc: 0]p: update_non_local_matrix_data: 0.46 [ms]
[OGL LOG][Proc: 0]p_matrix: call_update: 2.734 [ms]
[OGL LOG][Proc: 0]p_rhs: call_update: 0.85 [ms]
[OGL LOG][Proc: 0]p: init_precond: 0.039 [ms]
[OGL LOG][StoppingCriterion.H:372] Creating stopping criterion with minIter 468 frequency 10
[OGL LOG][Proc: 0]p: generate_solver: 0.024 [ms]
[OGL LOG][Proc: 0]p: solve: 501.455 [ms]
[OGL LOG][Proc: 0]p: copy_x_back: 0.435 [ms]
[OGL LOG][lduLduBase.H:319] 
Statistics:
	Time per iteration: 650 [mu s]
	Time per residual norm calculation: 224.000000 [mu s]
	Time per iteration and DOF: 0.650000 [ns]
	Retrieve results bandwith 2.298000 [GByte/s]
[OGL LOG][Proc: 0]p: solve_multi_gpu: 505.843 [ms]
nonehipGKOCG:  Solving for p, Initial residual = 0.632508, Final residual = 7.98432e-05, No Iterations 771
linear solve p 515.349 [ms]
[INFO] SolveP: 515.384 [ms]
time step continuity errors : sum local = 1.82879e-08, global = 5.96437e-21, cumulative = 4.12812e-21
[INFO] ContinuityError: 4.706 [ms]
[INFO] CorrectBoundary: 0.151 [ms]
[INFO] PISOStep: 570.77 [ms]
[INFO] MatrixAssemblyPI: 23.77 [ms]
[INFO] AdjustPhi: 2.947 [ms]
[INFO] ConstrainPressure: 0.003 [ms]
[INFO] MatrixAssemblyPII: 8.778 [ms]
[OGL LOG][Proc: 0]: global_index_init: 0.06 [ms]
[OGL LOG][Proc: 0]p_local_coeffs: call_update: 0 [ms]
[OGL LOG][Proc: 0]p_non_local_coeffs: call_update: 0 [ms]
[OGL LOG][Proc: 0]p: update_local_matrix_data: 7.18 [ms]
[OGL LOG][Proc: 0]p: update_non_local_matrix_data: 0.438 [ms]
[OGL LOG][Proc: 0]p_matrix: call_update: 2.036 [ms]
[OGL LOG][Proc: 0]p_rhs: call_update: 0.837 [ms]
[OGL LOG][Proc: 0]p: init_precond: 0.04 [ms]
[OGL LOG][StoppingCriterion.H:372] Creating stopping criterion with minIter 462 frequency 12
[OGL LOG][Proc: 0]p: generate_solver: 0.023 [ms]
[OGL LOG][Proc: 0]p: solve: 534.331 [ms]
[OGL LOG][Proc: 0]p: copy_x_back: 0.583 [ms]
[OGL LOG][lduLduBase.H:319] 
Statistics:
	Time per iteration: 694 [mu s]
	Time per residual norm calculation: 218.000000 [mu s]
	Time per iteration and DOF: 0.694000 [ns]
	Retrieve results bandwith 1.715000 [GByte/s]
[OGL LOG][Proc: 0]p: solve_multi_gpu: 538.151 [ms]
nonehipGKOCG:  Solving for p, Initial residual = 0.579918, Final residual = 8.50426e-05, No Iterations 769
linear solve p 547.107 [ms]
[INFO] SolveP: 547.128 [ms]
time step continuity errors : sum local = 1.89623e-08, global = -2.20385e-21, cumulative = 1.92427e-21
[INFO] ContinuityError: 2.763 [ms]
[INFO] CorrectBoundary: 0.276 [ms]
[INFO] PISOStep: 600.407 [ms]
[INFO] TimeStep: 1374.52 [ms]
ExecutionTime = 5.73 s  ClockTime = 6 s

Time = 0.002

Courant Number mean: 0.0388942 max: 0.452946
[INFO] MatrixAssemblyU: 23.528 [ms]
DILUPBiCGStab:  Solving for Ux, Initial residual = 0.0318966, Final residual = 0.000167511, No Iterations 5
DILUPBiCGStab:  Solving for Uy, Initial residual = 0.0813673, Final residual = 0.000384958, No Iterations 5
DILUPBiCGStab:  Solving for Uz, Initial residual = 0.273826, Final residual = 0.001181, No Iterations 5
linear solve U 162.706 [ms]
[INFO] MomentumPredictor: 176.865 [ms]
[INFO] MatrixAssemblyPI: 25.302 [ms]
[INFO] AdjustPhi: 2.08 [ms]
[INFO] ConstrainPressure: 0.002 [ms]
[INFO] MatrixAssemblyPII: 11.024 [ms]
[OGL LOG][Proc: 0]: global_index_init: 0.042 [ms]
[OGL LOG][Proc: 0]p_local_coeffs: call_update: 0 [ms]
[OGL LOG][Proc: 0]p_non_local_coeffs: call_update: 0 [ms]
[OGL LOG][Proc: 0]p: update_local_matrix_data: 7.942 [ms]
[OGL LOG][Proc: 0]p: update_non_local_matrix_data: 0.464 [ms]
[OGL LOG][Proc: 0]p_matrix: call_update: 2.613 [ms]
[OGL LOG][Proc: 0]p_rhs: call_update: 0.793 [ms]
[OGL LOG][Proc: 0]p: init_precond: 0.036 [ms]
[OGL LOG][StoppingCriterion.H:372] Creating stopping criterion with minIter 461 frequency 10
[OGL LOG][Proc: 0]p: generate_solver: 0.024 [ms]
[OGL LOG][Proc: 0]p: solve: 498.234 [ms]
[OGL LOG][Proc: 0]p: copy_x_back: 0.42 [ms]
[OGL LOG][lduLduBase.H:319] 
Statistics:
	Time per iteration: 646 [mu s]
	Time per residual norm calculation: 216.000000 [mu s]
	Time per iteration and DOF: 0.646000 [ns]
	Retrieve results bandwith 2.380000 [GByte/s]
[OGL LOG][Proc: 0]p: solve_multi_gpu: 502.429 [ms]
nonehipGKOCG:  Solving for p, Initial residual = 0.412413, Final residual = 4.49906e-05, No Iterations 771
linear solve p 511.89 [ms]
[INFO] SolveP: 511.93 [ms]
time step continuity errors : sum local = 8.79755e-09, global = -5.25675e-21, cumulative = -3.33248e-21
[INFO] ContinuityError: 4.528 [ms]
[INFO] CorrectBoundary: 0.531 [ms]
[INFO] PISOStep: 566.793 [ms]
[INFO] MatrixAssemblyPI: 24.255 [ms]
[INFO] AdjustPhi: 1.897 [ms]
[INFO] ConstrainPressure: 0.002 [ms]
[INFO] MatrixAssemblyPII: 7.332 [ms]
[OGL LOG][Proc: 0]: global_index_init: 0.032 [ms]
[OGL LOG][Proc: 0]p_local_coeffs: call_update: 0 [ms]
[OGL LOG][Proc: 0]p_non_local_coeffs: call_update: 0 [ms]
[OGL LOG][Proc: 0]p: update_local_matrix_data: 7.126 [ms]
[OGL LOG][Proc: 0]p: update_non_local_matrix_data: 0.403 [ms]
[OGL LOG][Proc: 0]p_matrix: call_update: 2.144 [ms]
[OGL LOG][Proc: 0]p_rhs: call_update: 0.837 [ms]
[OGL LOG][Proc: 0]p: init_precond: 0.04 [ms]
[OGL LOG][StoppingCriterion.H:372] Creating stopping criterion with minIter 462 frequency 12
[OGL LOG][Proc: 0]p: generate_solver: 0.024 [ms]
[OGL LOG][Proc: 0]p: solve: 515.388 [ms]
[OGL LOG][Proc: 0]p: copy_x_back: 0.393 [ms]
[OGL LOG][lduLduBase.H:319] 
Statistics:
	Time per iteration: 670 [mu s]
	Time per residual norm calculation: 216.000000 [mu s]
	Time per iteration and DOF: 0.670000 [ns]
	Retrieve results bandwith 2.544000 [GByte/s]
[OGL LOG][Proc: 0]p: solve_multi_gpu: 519.131 [ms]
nonehipGKOCG:  Solving for p, Initial residual = 0.350532, Final residual = 4.67173e-05, No Iterations 769
linear solve p 528.119 [ms]
[INFO] SolveP: 528.142 [ms]
time step continuity errors : sum local = 9.22624e-09, global = -3.68605e-21, cumulative = -7.01853e-21
[INFO] ContinuityError: 6.465 [ms]
[INFO] CorrectBoundary: 0.483 [ms]
[INFO] PISOStep: 581.51 [ms]
[INFO] TimeStep: 1352.45 [ms]
ExecutionTime = 7.07 s  ClockTime = 8 s

Time = 0.0025

Courant Number mean: 0.043947 max: 0.459624
[INFO] MatrixAssemblyU: 20.016 [ms]
DILUPBiCGStab:  Solving for Ux, Initial residual = 0.0235041, Final residual = 0.000104802, No Iterations 5
DILUPBiCGStab:  Solving for Uy, Initial residual = 0.0515221, Final residual = 0.000235042, No Iterations 5
DILUPBiCGStab:  Solving for Uz, Initial residual = 0.0980712, Final residual = 0.000479284, No Iterations 5
linear solve U 168.83 [ms]
[INFO] MomentumPredictor: 184.966 [ms]
[INFO] MatrixAssemblyPI: 25.953 [ms]
[INFO] AdjustPhi: 0.76 [ms]
[INFO] ConstrainPressure: 0.002 [ms]
[INFO] MatrixAssemblyPII: 7.454 [ms]
[OGL LOG][Proc: 0]: global_index_init: 0.026 [ms]
[OGL LOG][Proc: 0]p_local_coeffs: call_update: 0 [ms]
[OGL LOG][Proc: 0]p_non_local_coeffs: call_update: 0 [ms]
[OGL LOG][Proc: 0]p: update_local_matrix_data: 7.852 [ms]
[OGL LOG][Proc: 0]p: update_non_local_matrix_data: 0.491 [ms]
[OGL LOG][Proc: 0]p_matrix: call_update: 2.646 [ms]
[OGL LOG][Proc: 0]p_rhs: call_update: 0.822 [ms]
[OGL LOG][Proc: 0]p: init_precond: 0.039 [ms]
[OGL LOG][StoppingCriterion.H:372] Creating stopping criterion with minIter 461 frequency 10
[OGL LOG][Proc: 0]p: generate_solver: 0.023 [ms]
[OGL LOG][Proc: 0]p: solve: 472.091 [ms]
[OGL LOG][Proc: 0]p: copy_x_back: 0.501 [ms]
[OGL LOG][lduLduBase.H:319] 
Statistics:
	Time per iteration: 645 [mu s]
	Time per residual norm calculation: 219.000000 [mu s]
	Time per iteration and DOF: 0.645000 [ns]
	Retrieve results bandwith 1.996000 [GByte/s]
[OGL LOG][Proc: 0]p: solve_multi_gpu: 476.384 [ms]
nonehipGKOCG:  Solving for p, Initial residual = 0.314742, Final residual = 8.61548e-05, No Iterations 731
linear solve p 485.953 [ms]
[INFO] SolveP: 485.986 [ms]
time step continuity errors : sum local = 1.39117e-08, global = 3.63125e-21, cumulative = -3.38728e-21
[INFO] ContinuityError: 4.161 [ms]
[INFO] CorrectBoundary: 0.089 [ms]
[INFO] PISOStep: 538.652 [ms]
[INFO] MatrixAssemblyPI: 22.411 [ms]
[INFO] AdjustPhi: 3.961 [ms]
[INFO] ConstrainPressure: 0.001 [ms]
[INFO] MatrixAssemblyPII: 9.488 [ms]
[OGL LOG][Proc: 0]: global_index_init: 0.119 [ms]
[OGL LOG][Proc: 0]p_local_coeffs: call_update: 0 [ms]
[OGL LOG][Proc: 0]p_non_local_coeffs: call_update: 0 [ms]
[OGL LOG][Proc: 0]p: update_local_matrix_data: 7.187 [ms]
[OGL LOG][Proc: 0]p: update_non_local_matrix_data: 0.402 [ms]
[OGL LOG][Proc: 0]p_matrix: call_update: 1.988 [ms]
[OGL LOG][Proc: 0]p_rhs: call_update: 1.044 [ms]
[OGL LOG][Proc: 0]p: init_precond: 0.041 [ms]
[OGL LOG][StoppingCriterion.H:372] Creating stopping criterion with minIter 438 frequency 12
[OGL LOG][Proc: 0]p: generate_solver: 0.023 [ms]
[OGL LOG][Proc: 0]p: solve: 473.332 [ms]
[OGL LOG][Proc: 0]p: copy_x_back: 0.438 [ms]
[OGL LOG][lduLduBase.H:319] 
Statistics:
	Time per iteration: 645 [mu s]
	Time per residual norm calculation: 212.000000 [mu s]
	Time per iteration and DOF: 0.645000 [ns]
	Retrieve results bandwith 2.283000 [GByte/s]
[OGL LOG][Proc: 0]p: solve_multi_gpu: 477.174 [ms]
nonehipGKOCG:  Solving for p, Initial residual = 0.269241, Final residual = 7.68611e-05, No Iterations 733
linear solve p 485.879 [ms]
[INFO] SolveP: 485.902 [ms]
time step continuity errors : sum local = 1.23192e-08, global = -6.79504e-21, cumulative = -1.01823e-20
[INFO] ContinuityError: 4.063 [ms]
[INFO] CorrectBoundary: 1.22 [ms]
[INFO] PISOStep: 537.132 [ms]
[INFO] TimeStep: 1286.45 [ms]
ExecutionTime = 8.35 s  ClockTime = 9 s

Time = 0.003

Courant Number mean: 0.047987 max: 0.463866
[INFO] MatrixAssemblyU: 24.164 [ms]
DILUPBiCGStab:  Solving for Ux, Initial residual = 0.0178881, Final residual = 7.93732e-05, No Iterations 5
DILUPBiCGStab:  Solving for Uy, Initial residual = 0.0401303, Final residual = 0.000115986, No Iterations 5
DILUPBiCGStab:  Solving for Uz, Initial residual = 0.0850985, Final residual = 0.00039922, No Iterations 5
linear solve U 162.916 [ms]
[INFO] MomentumPredictor: 174.598 [ms]
[INFO] MatrixAssemblyPI: 24.541 [ms]
[INFO] AdjustPhi: 1.979 [ms]
[INFO] ConstrainPressure: 0.002 [ms]
[INFO] MatrixAssemblyPII: 8.533 [ms]
[OGL LOG][Proc: 0]: global_index_init: 0.057 [ms]
[OGL LOG][Proc: 0]p_local_coeffs: call_update: 0 [ms]
[OGL LOG][Proc: 0]p_non_local_coeffs: call_update: 0 [ms]
[OGL LOG][Proc: 0]p: update_local_matrix_data: 7.054 [ms]
[OGL LOG][Proc: 0]p: update_non_local_matrix_data: 0.502 [ms]
[OGL LOG][Proc: 0]p_matrix: call_update: 2.215 [ms]
[OGL LOG][Proc: 0]p_rhs: call_update: 1.527 [ms]
[OGL LOG][Proc: 0]p: init_precond: 0.037 [ms]
[OGL LOG][StoppingCriterion.H:372] Creating stopping criterion with minIter 439 frequency 9
[OGL LOG][Proc: 0]p: generate_solver: 0.024 [ms]
[OGL LOG][Proc: 0]p: solve: 495.295 [ms]
[OGL LOG][Proc: 0]p: copy_x_back: 0.39 [ms]
[OGL LOG][lduLduBase.H:319] 
Statistics:
	Time per iteration: 678 [mu s]
	Time per residual norm calculation: 214.000000 [mu s]
	Time per iteration and DOF: 0.678000 [ns]
	Retrieve results bandwith 2.564000 [GByte/s]
[OGL LOG][Proc: 0]p: solve_multi_gpu: 499.798 [ms]
nonehipGKOCG:  Solving for p, Initial residual = 0.196871, Final residual = 8.22495e-05, No Iterations 730
linear solve p 509.08 [ms]
[INFO] SolveP: 509.107 [ms]
time step continuity errors : sum local = 1.28262e-08, global = 2.19388e-21, cumulative = -7.98844e-21
[INFO] ContinuityError: 4.774 [ms]
[INFO] CorrectBoundary: 0.804 [ms]
[INFO] PISOStep: 561.378 [ms]
[INFO] MatrixAssemblyPI: 24.048 [ms]
[INFO] AdjustPhi: 3.538 [ms]
[INFO] ConstrainPressure: 0.002 [ms]
[INFO] MatrixAssemblyPII: 7.048 [ms]
[OGL LOG][Proc: 0]: global_index_init: 0.008 [ms]
[OGL LOG][Proc: 0]p_local_coeffs: call_update: 0 [ms]
[OGL LOG][Proc: 0]p_non_local_coeffs: call_update: 0 [ms]
[OGL LOG][Proc: 0]p: update_local_matrix_data: 6.994 [ms]
[OGL LOG][Proc: 0]p: update_non_local_matrix_data: 1.073 [ms]
[OGL LOG][Proc: 0]p_matrix: call_update: 1.625 [ms]
[OGL LOG][Proc: 0]p_rhs: call_update: 1.662 [ms]
[OGL LOG][Proc: 0]p: init_precond: 0.037 [ms]
[OGL LOG][StoppingCriterion.H:372] Creating stopping criterion with minIter 438 frequency 9
[OGL LOG][Proc: 0]p: generate_solver: 0.02 [ms]
[OGL LOG][Proc: 0]p: solve: 470.073 [ms]
[OGL LOG][Proc: 0]p: copy_x_back: 0.497 [ms]
[OGL LOG][lduLduBase.H:319] 
Statistics:
	Time per iteration: 651 [mu s]
	Time per residual norm calculation: 228.000000 [mu s]
	Time per iteration and DOF: 0.651000 [ns]
	Retrieve results bandwith 2.012000 [GByte/s]
[OGL LOG][Proc: 0]p: solve_multi_gpu: 474.27 [ms]
nonehipGKOCG:  Solving for p, Initial residual = 0.163643, Final residual = 8.86643e-05, No Iterations 721
linear solve p 483.683 [ms]
[INFO] SolveP: 483.71 [ms]
time step continuity errors : sum local = 1.38393e-08, global = -7.3781e-21, cumulative = -1.53665e-20
[INFO] ContinuityError: 2.251 [ms]
[INFO] CorrectBoundary: 0.193 [ms]
[INFO] PISOStep: 535.064 [ms]
[INFO] TimeStep: 1298.91 [ms]
ExecutionTime = 9.63 s  ClockTime = 10 s

Time = 0.0035

Courant Number mean: 0.0513959 max: 0.466746
[INFO] MatrixAssemblyU: 25.739 [ms]
DILUPBiCGStab:  Solving for Ux, Initial residual = 0.0146333, Final residual = 5.75428e-05, No Iterations 5
DILUPBiCGStab:  Solving for Uy, Initial residual = 0.0317657, Final residual = 9.93811e-05, No Iterations 5
DILUPBiCGStab:  Solving for Uz, Initial residual = 0.0565932, Final residual = 0.000245876, No Iterations 5
linear solve U 167.709 [ms]
[INFO] MomentumPredictor: 178.911 [ms]
[INFO] MatrixAssemblyPI: 23.359 [ms]
[INFO] AdjustPhi: 3.799 [ms]
[INFO] ConstrainPressure: 0.002 [ms]
[INFO] MatrixAssemblyPII: 8.194 [ms]
[OGL LOG][Proc: 0]: global_index_init: 0.019 [ms]
[OGL LOG][Proc: 0]p_local_coeffs: call_update: 0 [ms]
[OGL LOG][Proc: 0]p_non_local_coeffs: call_update: 0 [ms]
[OGL LOG][Proc: 0]p: update_local_matrix_data: 7.879 [ms]
[OGL LOG][Proc: 0]p: update_non_local_matrix_data: 0.455 [ms]
[OGL LOG][Proc: 0]p_matrix: call_update: 2.41 [ms]
[OGL LOG][Proc: 0]p_rhs: call_update: 0.297 [ms]
[OGL LOG][Proc: 0]p: init_precond: 0.041 [ms]
[OGL LOG][StoppingCriterion.H:372] Creating stopping criterion with minIter 432 frequency 12
[OGL LOG][Proc: 0]p: generate_solver: 0.024 [ms]
[OGL LOG][Proc: 0]p: solve: 292.345 [ms]
[OGL LOG][Proc: 0]p: copy_x_back: 0.411 [ms]
[OGL LOG][lduLduBase.H:319] 
Statistics:
	Time per iteration: 639 [mu s]
	Time per residual norm calculation: 222.000000 [mu s]
	Time per iteration and DOF: 0.639000 [ns]
	Retrieve results bandwith 2.433000 [GByte/s]
[OGL LOG][Proc: 0]p: solve_multi_gpu: 295.812 [ms]
nonehipGKOCG:  Solving for p, Initial residual = 0.139328, Final residual = 9.53258e-05, No Iterations 457
linear solve p 305.383 [ms]
[INFO] SolveP: 305.415 [ms]
time step continuity errors : sum local = 1.54186e-08, global = -6.87863e-21, cumulative = -2.22452e-20
[INFO] ContinuityError: 2.406 [ms]
[INFO] CorrectBoundary: 0.119 [ms]
[INFO] PISOStep: 355.213 [ms]
[INFO] MatrixAssemblyPI: 24.777 [ms]
[INFO] AdjustPhi: 0.893 [ms]
[INFO] ConstrainPressure: 0.002 [ms]
[INFO] MatrixAssemblyPII: 7.914 [ms]
[OGL LOG][Proc: 0]: global_index_init: 0.047 [ms]
[OGL LOG][Proc: 0]p_local_coeffs: call_update: 0 [ms]
[OGL LOG][Proc: 0]p_non_local_coeffs: call_update: 0 [ms]
[OGL LOG][Proc: 0]p: update_local_matrix_data: 7.186 [ms]
[OGL LOG][Proc: 0]p: update_non_local_matrix_data: 0.394 [ms]
[OGL LOG][Proc: 0]p_matrix: call_update: 2.23 [ms]
[OGL LOG][Proc: 0]p_rhs: call_update: 0.401 [ms]
[OGL LOG][Proc: 0]p: init_precond: 0.04 [ms]
[OGL LOG][StoppingCriterion.H:372] Creating stopping criterion with minIter 274 frequency 9
[OGL LOG][Proc: 0]p: generate_solver: 0.023 [ms]
[OGL LOG][Proc: 0]p: solve: 229.167 [ms]
[OGL LOG][Proc: 0]p: copy_x_back: 0.435 [ms]
[OGL LOG][lduLduBase.H:319] 
Statistics:
	Time per iteration: 686 [mu s]
	Time per residual norm calculation: 223.000000 [mu s]
	Time per iteration and DOF: 0.686000 [ns]
	Retrieve results bandwith 2.298000 [GByte/s]
[OGL LOG][Proc: 0]p: solve_multi_gpu: 232.581 [ms]
nonehipGKOCG:  Solving for p, Initial residual = 0.116448, Final residual = 9.20815e-05, No Iterations 334
linear solve p 241.233 [ms]
[INFO] SolveP: 241.255 [ms]
time step continuity errors : sum local = 1.40138e-08, global = 2.15274e-21, cumulative = -2.00924e-20
[INFO] ContinuityError: 4.113 [ms]
[INFO] CorrectBoundary: 1.517 [ms]
[INFO] PISOStep: 290.766 [ms]
[INFO] TimeStep: 854.719 [ms]
ExecutionTime = 10.48 s  ClockTime = 11 s

Time = 0.004

Courant Number mean: 0.0543347 max: 0.468955
[INFO] MatrixAssemblyU: 23.63 [ms]
DILUPBiCGStab:  Solving for Ux, Initial residual = 0.0122754, Final residual = 4.51126e-05, No Iterations 5
DILUPBiCGStab:  Solving for Uy, Initial residual = 0.0265302, Final residual = 6.38635e-05, No Iterations 5
DILUPBiCGStab:  Solving for Uz, Initial residual = 0.0511304, Final residual = 0.000171366, No Iterations 5
linear solve U 161.739 [ms]
[INFO] MomentumPredictor: 175.175 [ms]
[INFO] MatrixAssemblyPI: 25.692 [ms]
[INFO] AdjustPhi: 0.799 [ms]
[INFO] ConstrainPressure: 0.002 [ms]
[INFO] MatrixAssemblyPII: 6.954 [ms]
[OGL LOG][Proc: 0]: global_index_init: 0.029 [ms]
[OGL LOG][Proc: 0]p_local_coeffs: call_update: 0 [ms]
[OGL LOG][Proc: 0]p_non_local_coeffs: call_update: 0 [ms]
[OGL LOG][Proc: 0]p: update_local_matrix_data: 7.116 [ms]
[OGL LOG][Proc: 0]p: update_non_local_matrix_data: 0.39 [ms]
[OGL LOG][Proc: 0]p_matrix: call_update: 2.328 [ms]
[OGL LOG][Proc: 0]p_rhs: call_update: 1.278 [ms]
[OGL LOG][Proc: 0]p: init_precond: 0.037 [ms]
[OGL LOG][StoppingCriterion.H:372] Creating stopping criterion with minIter 200 frequency 6
[OGL LOG][Proc: 0]p: generate_solver: 0.024 [ms]
[OGL LOG][Proc: 0]p: solve: 215.076 [ms]
[OGL LOG][Proc: 0]p: copy_x_back: 0.397 [ms]
[OGL LOG][lduLduBase.H:319] 
Statistics:
	Time per iteration: 661 [mu s]
	Time per residual norm calculation: 224.000000 [mu s]
	Time per iteration and DOF: 0.661000 [ns]
	Retrieve results bandwith 2.518000 [GByte/s]
[OGL LOG][Proc: 0]p: solve_multi_gpu: 219.446 [ms]
nonehipGKOCG:  Solving for p, Initial residual = 0.0908002, Final residual = 9.52071e-05, No Iterations 325
linear solve p 228.163 [ms]
[INFO] SolveP: 228.186 [ms]
time step continuity errors : sum local = 1.38502e-08, global = -1.32887e-21, cumulative = -2.14213e-20
[INFO] ContinuityError: 4.082 [ms]
[INFO] CorrectBoundary: 0.138 [ms]
[INFO] PISOStep: 280.584 [ms]
[INFO] MatrixAssemblyPI: 25.393 [ms]
[INFO] AdjustPhi: 0.722 [ms]
[INFO] ConstrainPressure: 0.002 [ms]
[INFO] MatrixAssemblyPII: 8.247 [ms]
[OGL LOG][Proc: 0]: global_index_init: 0.033 [ms]
[OGL LOG][Proc: 0]p_local_coeffs: call_update: 0 [ms]
[OGL LOG][Proc: 0]p_non_local_coeffs: call_update: 0 [ms]
[OGL LOG][Proc: 0]p: update_local_matrix_data: 7.181 [ms]
[OGL LOG][Proc: 0]p: update_non_local_matrix_data: 0.442 [ms]
[OGL LOG][Proc: 0]p_matrix: call_update: 2.435 [ms]
[OGL LOG][Proc: 0]p_rhs: call_update: 0.407 [ms]
[OGL LOG][Proc: 0]p: init_precond: 0.039 [ms]
[OGL LOG][StoppingCriterion.H:372] Creating stopping criterion with minIter 195 frequency 8
[OGL LOG][Proc: 0]p: generate_solver: 0.023 [ms]
[OGL LOG][Proc: 0]p: solve: 211.389 [ms]
[OGL LOG][Proc: 0]p: copy_x_back: 0.437 [ms]
[OGL LOG][lduLduBase.H:319] 
Statistics:
	Time per iteration: 658 [mu s]
	Time per residual norm calculation: 222.000000 [mu s]
	Time per iteration and DOF: 0.658000 [ns]
	Retrieve results bandwith 2.288000 [GByte/s]
[OGL LOG][Proc: 0]p: solve_multi_gpu: 215.016 [ms]
nonehipGKOCG:  Solving for p, Initial residual = 0.0750855, Final residual = 9.85425e-05, No Iterations 321
linear solve p 223.849 [ms]
[INFO] SolveP: 223.872 [ms]
time step continuity errors : sum local = 1.43329e-08, global = -5.19309e-21, cumulative = -2.66144e-20
[INFO] ContinuityError: 2.451 [ms]
[INFO] CorrectBoundary: 0.135 [ms]
[INFO] PISOStep: 272.893 [ms]
[INFO] TimeStep: 756.13 [ms]
ExecutionTime = 11.23 s  ClockTime = 12 s

Time = 0.0045

Courant Number mean: 0.0569118 max: 0.470657
[INFO] MatrixAssemblyU: 23.953 [ms]
DILUPBiCGStab:  Solving for Ux, Initial residual = 0.0105282, Final residual = 3.57226e-05, No Iterations 5
DILUPBiCGStab:  Solving for Uy, Initial residual = 0.0226786, Final residual = 5.8748e-05, No Iterations 5
DILUPBiCGStab:  Solving for Uz, Initial residual = 0.0428404, Final residual = 0.000125561, No Iterations 5
linear solve U 164.052 [ms]
[INFO] MomentumPredictor: 174.767 [ms]
[INFO] MatrixAssemblyPI: 23.656 [ms]
[INFO] AdjustPhi: 6.365 [ms]
[INFO] ConstrainPressure: 0.002 [ms]
[INFO] MatrixAssemblyPII: 6.801 [ms]
[OGL LOG][Proc: 0]: global_index_init: 0.044 [ms]
[OGL LOG][Proc: 0]p_local_coeffs: call_update: 0 [ms]
[OGL LOG][Proc: 0]p_non_local_coeffs: call_update: 0 [ms]
[OGL LOG][Proc: 0]p: update_local_matrix_data: 7.249 [ms]
[OGL LOG][Proc: 0]p: update_non_local_matrix_data: 0.369 [ms]
[OGL LOG][Proc: 0]p_matrix: call_update: 2.482 [ms]
[OGL LOG][Proc: 0]p_rhs: call_update: 0.888 [ms]
[OGL LOG][Proc: 0]p: init_precond: 0.037 [ms]
[OGL LOG][StoppingCriterion.H:372] Creating stopping criterion with minIter 192 frequency 8
[OGL LOG][Proc: 0]p: generate_solver: 0.022 [ms]
[OGL LOG][Proc: 0]p: solve: 231.123 [ms]
[OGL LOG][Proc: 0]p: copy_x_back: 0.389 [ms]
[OGL LOG][lduLduBase.H:319] 
Statistics:
	Time per iteration: 702 [mu s]
	Time per residual norm calculation: 231.000000 [mu s]
	Time per iteration and DOF: 0.702000 [ns]
	Retrieve results bandwith 2.570000 [GByte/s]
[OGL LOG][Proc: 0]p: solve_multi_gpu: 235.236 [ms]
nonehipGKOCG:  Solving for p, Initial residual = 0.0667308, Final residual = 9.85823e-05, No Iterations 329
linear solve p 244.39 [ms]
[INFO] SolveP: 244.414 [ms]
time step continuity errors : sum local = 1.57907e-08, global = -7.08056e-21, cumulative = -3.3695e-20
[INFO] ContinuityError: 4.692 [ms]
[INFO] CorrectBoundary: 0.865 [ms]
[INFO] PISOStep: 298.739 [ms]
[INFO] MatrixAssemblyPI: 22.191 [ms]
[INFO] AdjustPhi: 3.881 [ms]
[INFO] ConstrainPressure: 0.002 [ms]
[INFO] MatrixAssemblyPII: 7.386 [ms]
[OGL LOG][Proc: 0]: global_index_init: 0.007 [ms]
[OGL LOG][Proc: 0]p_local_coeffs: call_update: 0 [ms]
[OGL LOG][Proc: 0]p_non_local_coeffs: call_update: 0 [ms]
[OGL LOG][Proc: 0]p: update_local_matrix_data: 7.048 [ms]
[OGL LOG][Proc: 0]p: update_non_local_matrix_data: 1.12 [ms]
[OGL LOG][Proc: 0]p_matrix: call_update: 1.6 [ms]
[OGL LOG][Proc: 0]p_rhs: call_update: 1.227 [ms]
[OGL LOG][Proc: 0]p: init_precond: 0.037 [ms]
[OGL LOG][StoppingCriterion.H:372] Creating stopping criterion with minIter 197 frequency 6
[OGL LOG][Proc: 0]p: generate_solver: 0.023 [ms]
[OGL LOG][Proc: 0]p: solve: 220.613 [ms]
[OGL LOG][Proc: 0]p: copy_x_back: 0.502 [ms]
[OGL LOG][lduLduBase.H:319] 
Statistics:
	Time per iteration: 691 [mu s]
	Time per residual norm calculation: 228.000000 [mu s]
	Time per iteration and DOF: 0.691000 [ns]
	Retrieve results bandwith 1.992000 [GByte/s]
[OGL LOG][Proc: 0]p: solve_multi_gpu: 224.279 [ms]
nonehipGKOCG:  Solving for p, Initial residual = 0.0556389, Final residual = 9.45733e-05, No Iterations 319
linear solve p 233.582 [ms]
[INFO] SolveP: 233.607 [ms]
time step continuity errors : sum local = 1.41108e-08, global = -5.34617e-21, cumulative = -3.90411e-20
[INFO] ContinuityError: 3.084 [ms]
[INFO] CorrectBoundary: 0.188 [ms]
[INFO] PISOStep: 281.973 [ms]
[INFO] TimeStep: 784.339 [ms]
ExecutionTime = 11.99 s  ClockTime = 13 s

Time = 0.005

Courant Number mean: 0.0592067 max: 0.472052
[INFO] MatrixAssemblyU: 24.427 [ms]
DILUPBiCGStab:  Solving for Ux, Initial residual = 0.00921077, Final residual = 3.00597e-05, No Iterations 5
DILUPBiCGStab:  Solving for Uy, Initial residual = 0.0197467, Final residual = 4.40646e-05, No Iterations 5
DILUPBiCGStab:  Solving for Uz, Initial residual = 0.0380742, Final residual = 0.000101772, No Iterations 5
linear solve U 169.234 [ms]
[INFO] MomentumPredictor: 181.406 [ms]
[INFO] MatrixAssemblyPI: 25.976 [ms]
[INFO] AdjustPhi: 0.742 [ms]
[INFO] ConstrainPressure: 0.002 [ms]
[INFO] MatrixAssemblyPII: 8.438 [ms]
[OGL LOG][Proc: 0]: global_index_init: 0.017 [ms]
[OGL LOG][Proc: 0]p_local_coeffs: call_update: 0 [ms]
[OGL LOG][Proc: 0]p_non_local_coeffs: call_update: 0 [ms]
[OGL LOG][Proc: 0]p: update_local_matrix_data: 7.881 [ms]
[OGL LOG][Proc: 0]p: update_non_local_matrix_data: 0.45 [ms]
[OGL LOG][Proc: 0]p_matrix: call_update: 2.917 [ms]
[OGL LOG][Proc: 0]p_rhs: call_update: 0.186 [ms]
[OGL LOG][Proc: 0]p: init_precond: 0.041 [ms]
[OGL LOG][StoppingCriterion.H:372] Creating stopping criterion with minIter 191 frequency 6
[OGL LOG][Proc: 0]p: generate_solver: 0.023 [ms]
[OGL LOG][Proc: 0]p: solve: 214.676 [ms]
[OGL LOG][Proc: 0]p: copy_x_back: 0.537 [ms]
[OGL LOG][lduLduBase.H:319] 
Statistics:
	Time per iteration: 660 [mu s]
	Time per residual norm calculation: 230.000000 [mu s]
	Time per iteration and DOF: 0.660000 [ns]
	Retrieve results bandwith 1.862000 [GByte/s]
[OGL LOG][Proc: 0]p: solve_multi_gpu: 218.64 [ms]
nonehipGKOCG:  Solving for p, Initial residual = 0.0446033, Final residual = 8.86518e-05, No Iterations 325
linear solve p 228.179 [ms]
[INFO] SolveP: 228.205 [ms]
time step continuity errors : sum local = 1.32501e-08, global = 6.21502e-21, cumulative = -3.28261e-20
[INFO] ContinuityError: 2.178 [ms]
[INFO] CorrectBoundary: 0.289 [ms]
[INFO] PISOStep: 277.355 [ms]
[INFO] MatrixAssemblyPI: 23.867 [ms]
[INFO] AdjustPhi: 2.293 [ms]
[INFO] ConstrainPressure: 0.002 [ms]
[INFO] MatrixAssemblyPII: 6.255 [ms]
[OGL LOG][Proc: 0]: global_index_init: 0.018 [ms]
[OGL LOG][Proc: 0]p_local_coeffs: call_update: 0 [ms]
[OGL LOG][Proc: 0]p_non_local_coeffs: call_update: 0 [ms]
[OGL LOG][Proc: 0]p: update_local_matrix_data: 7.104 [ms]
[OGL LOG][Proc: 0]p: update_non_local_matrix_data: 0.393 [ms]
[OGL LOG][Proc: 0]p_matrix: call_update: 2.543 [ms]
[OGL LOG][Proc: 0]p_rhs: call_update: 0.404 [ms]
[OGL LOG][Proc: 0]p: init_precond: 0.039 [ms]
[OGL LOG][StoppingCriterion.H:372] Creating stopping criterion with minIter 195 frequency 8
[OGL LOG][Proc: 0]p: generate_solver: 0.023 [ms]
[OGL LOG][Proc: 0]p: solve: 211.113 [ms]
[OGL LOG][Proc: 0]p: copy_x_back: 0.446 [ms]
[OGL LOG][lduLduBase.H:319] 
Statistics:
	Time per iteration: 657 [mu s]
	Time per residual norm calculation: 222.000000 [mu s]
	Time per iteration and DOF: 0.657000 [ns]
	Retrieve results bandwith 2.242000 [GByte/s]
[OGL LOG][Proc: 0]p: solve_multi_gpu: 214.88 [ms]
nonehipGKOCG:  Solving for p, Initial residual = 0.0376329, Final residual = 8.83989e-05, No Iterations 321
linear solve p 223.521 [ms]
[INFO] SolveP: 223.544 [ms]
time step continuity errors : sum local = 1.25899e-08, global = -1.06826e-20, cumulative = -4.35088e-20
[INFO] ContinuityError: 2.436 [ms]
[INFO] CorrectBoundary: 1.939 [ms]
[INFO] PISOStep: 272.909 [ms]
[INFO] TimeStep: 759.813 [ms]
ExecutionTime = 12.74 s  ClockTime = 13 s

Time = 0.0055

Courant Number mean: 0.0612662 max: 0.473198
[INFO] MatrixAssemblyU: 22.89 [ms]
DILUPBiCGStab:  Solving for Ux, Initial residual = 0.00814028, Final residual = 2.5194e-05, No Iterations 5
DILUPBiCGStab:  Solving for Uy, Initial residual = 0.0174511, Final residual = 3.94693e-05, No Iterations 5
DILUPBiCGStab:  Solving for Uz, Initial residual = 0.0342847, Final residual = 8.61569e-05, No Iterations 5
linear solve U 162.187 [ms]
[INFO] MomentumPredictor: 176.454 [ms]
[INFO] MatrixAssemblyPI: 25.351 [ms]
[INFO] AdjustPhi: 0.997 [ms]
[INFO] ConstrainPressure: 0.002 [ms]
[INFO] MatrixAssemblyPII: 9.421 [ms]
[OGL LOG][Proc: 0]: global_index_init: 0.054 [ms]
[OGL LOG][Proc: 0]p_local_coeffs: call_update: 0 [ms]
[OGL LOG][Proc: 0]p_non_local_coeffs: call_update: 0 [ms]
[OGL LOG][Proc: 0]p: update_local_matrix_data: 7.12 [ms]
[OGL LOG][Proc: 0]p: update_non_local_matrix_data: 0.447 [ms]
[OGL LOG][Proc: 0]p_matrix: call_update: 2.128 [ms]
[OGL LOG][Proc: 0]p_rhs: call_update: 1.392 [ms]
[OGL LOG][Proc: 0]p: init_precond: 0.037 [ms]
[OGL LOG][StoppingCriterion.H:372] Creating stopping criterion with minIter 192 frequency 8
[OGL LOG][Proc: 0]p: generate_solver: 0.024 [ms]
[OGL LOG][Proc: 0]p: solve: 460.441 [ms]
[OGL LOG][Proc: 0]p: copy_x_back: 0.432 [ms]
[OGL LOG][lduLduBase.H:319] 
Statistics:
	Time per iteration: 660 [mu s]
	Time per residual norm calculation: 223.000000 [mu s]
	Time per iteration and DOF: 0.660000 [ns]
	Retrieve results bandwith 2.314000 [GByte/s]
[OGL LOG][Proc: 0]p: solve_multi_gpu: 464.757 [ms]
nonehipGKOCG:  Solving for p, Initial residual = 0.0350195, Final residual = 7.72458e-05, No Iterations 697
linear solve p 473.388 [ms]
[INFO] SolveP: 473.411 [ms]
time step continuity errors : sum local = 1.08722e-08, global = -9.44328e-21, cumulative = -5.2952e-20
[INFO] ContinuityError: 4.028 [ms]
[INFO] CorrectBoundary: 1.246 [ms]
[INFO] PISOStep: 526.711 [ms]
[INFO] MatrixAssemblyPI: 21.378 [ms]
[INFO] AdjustPhi: 5.155 [ms]
[INFO] ConstrainPressure: 0.002 [ms]
[INFO] MatrixAssemblyPII: 7.717 [ms]
[OGL LOG][Proc: 0]: global_index_init: 0.048 [ms]
[OGL LOG][Proc: 0]p_local_coeffs: call_update: 0 [ms]
[OGL LOG][Proc: 0]p_non_local_coeffs: call_update: 0 [ms]
[OGL LOG][Proc: 0]p: update_local_matrix_data: 7.093 [ms]
[OGL LOG][Proc: 0]p: update_non_local_matrix_data: 0.458 [ms]
[OGL LOG][Proc: 0]p_matrix: call_update: 2.095 [ms]
[OGL LOG][Proc: 0]p_rhs: call_update: 0.824 [ms]
[OGL LOG][Proc: 0]p: init_precond: 0.038 [ms]
[OGL LOG][StoppingCriterion.H:372] Creating stopping criterion with minIter 418 frequency 11
[OGL LOG][Proc: 0]p: generate_solver: 0.024 [ms]
[OGL LOG][Proc: 0]p: solve: 446.089 [ms]
[OGL LOG][Proc: 0]p: copy_x_back: 0.441 [ms]
[OGL LOG][lduLduBase.H:319] 
Statistics:
	Time per iteration: 642 [mu s]
	Time per residual norm calculation: 224.000000 [mu s]
	Time per iteration and DOF: 0.642000 [ns]
	Retrieve results bandwith 2.267000 [GByte/s]
[OGL LOG][Proc: 0]p: solve_multi_gpu: 449.801 [ms]
nonehipGKOCG:  Solving for p, Initial residual = 0.0297421, Final residual = 8.06953e-05, No Iterations 694
linear solve p 458.504 [ms]
[INFO] SolveP: 458.53 [ms]
time step continuity errors : sum local = 1.13621e-08, global = -9.21208e-21, cumulative = -6.21641e-20
[INFO] ContinuityError: 2.37 [ms]
[INFO] CorrectBoundary: 0.181 [ms]
[INFO] PISOStep: 508.346 [ms]
[INFO] TimeStep: 1241.41 [ms]
ExecutionTime = 13.96 s  ClockTime = 15 s

Time = 0.006

Courant Number mean: 0.0631376 max: 0.474175
[INFO] MatrixAssemblyU: 24.016 [ms]
DILUPBiCGStab:  Solving for Ux, Initial residual = 0.00728647, Final residual = 2.20738e-05, No Iterations 5
DILUPBiCGStab:  Solving for Uy, Initial residual = 0.0155757, Final residual = 3.38483e-05, No Iterations 5
DILUPBiCGStab:  Solving for Uz, Initial residual = 0.030508, Final residual = 6.94728e-05, No Iterations 5
linear solve U 163.854 [ms]
[INFO] MomentumPredictor: 175.795 [ms]
[INFO] MatrixAssemblyPI: 25.363 [ms]
[INFO] AdjustPhi: 1.215 [ms]
[INFO] ConstrainPressure: 0.002 [ms]
[INFO] MatrixAssemblyPII: 7.682 [ms]
[OGL LOG][Proc: 0]: global_index_init: 0.017 [ms]
[OGL LOG][Proc: 0]p_local_coeffs: call_update: 0 [ms]
[OGL LOG][Proc: 0]p_non_local_coeffs: call_update: 0 [ms]
[OGL LOG][Proc: 0]p: update_local_matrix_data: 7.107 [ms]
[OGL LOG][Proc: 0]p: update_non_local_matrix_data: 0.405 [ms]
[OGL LOG][Proc: 0]p_matrix: call_update: 2.789 [ms]
[OGL LOG][Proc: 0]p_rhs: call_update: 0.792 [ms]
[OGL LOG][Proc: 0]p: init_precond: 0.038 [ms]
[OGL LOG][StoppingCriterion.H:372] Creating stopping criterion with minIter 416 frequency 11
[OGL LOG][Proc: 0]p: generate_solver: 0.023 [ms]
[OGL LOG][Proc: 0]p: solve: 267.792 [ms]
[OGL LOG][Proc: 0]p: copy_x_back: 0.428 [ms]
[OGL LOG][lduLduBase.H:319] 
Statistics:
	Time per iteration: 639 [mu s]
	Time per residual norm calculation: 228.000000 [mu s]
	Time per iteration and DOF: 0.639000 [ns]
	Retrieve results bandwith 2.336000 [GByte/s]
[OGL LOG][Proc: 0]p: solve_multi_gpu: 272.165 [ms]
nonehipGKOCG:  Solving for p, Initial residual = 0.0249417, Final residual = 1.31568e-05, No Iterations 419
linear solve p 280.847 [ms]
[INFO] SolveP: 280.869 [ms]
time step continuity errors : sum local = 1.95883e-09, global = -1.27324e-20, cumulative = -7.48965e-20
[INFO] ContinuityError: 2.254 [ms]
[INFO] CorrectBoundary: 2.237 [ms]
[INFO] PISOStep: 331.686 [ms]
[INFO] MatrixAssemblyPI: 23.128 [ms]
[INFO] AdjustPhi: 3.694 [ms]
[INFO] ConstrainPressure: 0.002 [ms]
[INFO] MatrixAssemblyPII: 8.232 [ms]
[OGL LOG][Proc: 0]: global_index_init: 0.009 [ms]
[OGL LOG][Proc: 0]p_local_coeffs: call_update: 0 [ms]
[OGL LOG][Proc: 0]p_non_local_coeffs: call_update: 0 [ms]
[OGL LOG][Proc: 0]p: update_local_matrix_data: 7.161 [ms]
[OGL LOG][Proc: 0]p: update_non_local_matrix_data: 0.465 [ms]
[OGL LOG][Proc: 0]p_matrix: call_update: 2.368 [ms]
[OGL LOG][Proc: 0]p_rhs: call_update: 0.411 [ms]
[OGL LOG][Proc: 0]p: init_precond: 0.04 [ms]
[OGL LOG][StoppingCriterion.H:372] Creating stopping criterion with minIter 251 frequency 9
[OGL LOG][Proc: 0]p: generate_solver: 0.023 [ms]
[OGL LOG][Proc: 0]p: solve: 206.677 [ms]
[OGL LOG][Proc: 0]p: copy_x_back: 0.449 [ms]
[OGL LOG][lduLduBase.H:319] 
Statistics:
	Time per iteration: 654 [mu s]
	Time per residual norm calculation: 222.000000 [mu s]
	Time per iteration and DOF: 0.654000 [ns]
	Retrieve results bandwith 2.227000 [GByte/s]
[OGL LOG][Proc: 0]p: solve_multi_gpu: 210.249 [ms]
nonehipGKOCG:  Solving for p, Initial residual = 0.0217566, Final residual = 7.31612e-05, No Iterations 316
linear solve p 219.009 [ms]
[INFO] SolveP: 219.033 [ms]
time step continuity errors : sum local = 1.03488e-08, global = -5.02687e-21, cumulative = -7.99234e-20
[INFO] ContinuityError: 3.344 [ms]
[INFO] CorrectBoundary: 0.166 [ms]
[INFO] PISOStep: 269.885 [ms]
[INFO] TimeStep: 804.516 [ms]
ExecutionTime = 14.76 s  ClockTime = 15 s

Time = 0.0065

Courant Number mean: 0.0648411 max: 0.475011
[INFO] MatrixAssemblyU: 24.002 [ms]
DILUPBiCGStab:  Solving for Ux, Initial residual = 0.00655656, Final residual = 1.91759e-05, No Iterations 5
DILUPBiCGStab:  Solving for Uy, Initial residual = 0.0140535, Final residual = 3.04752e-05, No Iterations 5
DILUPBiCGStab:  Solving for Uz, Initial residual = 0.027661, Final residual = 6.07699e-05, No Iterations 5
linear solve U 188.867 [ms]
[INFO] MomentumPredictor: 197.298 [ms]
[INFO] MatrixAssemblyPI: 23.841 [ms]
[INFO] AdjustPhi: 3.079 [ms]
[INFO] ConstrainPressure: 0.002 [ms]
[INFO] MatrixAssemblyPII: 7.764 [ms]
[OGL LOG][Proc: 0]: global_index_init: 0.014 [ms]
[OGL LOG][Proc: 0]p_local_coeffs: call_update: 0 [ms]
[OGL LOG][Proc: 0]p_non_local_coeffs: call_update: 0 [ms]
[OGL LOG][Proc: 0]p: update_local_matrix_data: 7.096 [ms]
[OGL LOG][Proc: 0]p: update_non_local_matrix_data: 1.038 [ms]
[OGL LOG][Proc: 0]p_matrix: call_update: 1.847 [ms]
[OGL LOG][Proc: 0]p_rhs: call_update: 1.748 [ms]
[OGL LOG][Proc: 0]p: init_precond: 0.04 [ms]
[OGL LOG][StoppingCriterion.H:372] Creating stopping criterion with minIter 189 frequency 7
[OGL LOG][Proc: 0]p: generate_solver: 0.022 [ms]
[OGL LOG][Proc: 0]p: solve: 203.404 [ms]
[OGL LOG][Proc: 0]p: copy_x_back: 0.401 [ms]
[OGL LOG][lduLduBase.H:319] 
Statistics:
	Time per iteration: 658 [mu s]
	Time per residual norm calculation: 226.000000 [mu s]
	Time per iteration and DOF: 0.658000 [ns]
	Retrieve results bandwith 2.493000 [GByte/s]
[OGL LOG][Proc: 0]p: solve_multi_gpu: 207.793 [ms]
nonehipGKOCG:  Solving for p, Initial residual = 0.020484, Final residual = 9.15027e-05, No Iterations 309
linear solve p 217.167 [ms]
[INFO] SolveP: 217.191 [ms]
time step continuity errors : sum local = 1.35333e-08, global = -5.73789e-21, cumulative = -8.56613e-20
[INFO] ContinuityError: 2.408 [ms]
[INFO] CorrectBoundary: 0.174 [ms]
[INFO] PISOStep: 267.714 [ms]
[INFO] MatrixAssemblyPI: 24.911 [ms]
[INFO] AdjustPhi: 0.872 [ms]
[INFO] ConstrainPressure: 0.002 [ms]
[INFO] MatrixAssemblyPII: 8.331 [ms]
[OGL LOG][Proc: 0]: global_index_init: 0.012 [ms]
[OGL LOG][Proc: 0]p_local_coeffs: call_update: 0 [ms]
[OGL LOG][Proc: 0]p_non_local_coeffs: call_update: 0 [ms]
[OGL LOG][Proc: 0]p: update_local_matrix_data: 7.128 [ms]
[OGL LOG][Proc: 0]p: update_non_local_matrix_data: 0.463 [ms]
[OGL LOG][Proc: 0]p_matrix: call_update: 2.18 [ms]
[OGL LOG][Proc: 0]p_rhs: call_update: 0.406 [ms]
[OGL LOG][Proc: 0]p: init_precond: 0.039 [ms]
[OGL LOG][StoppingCriterion.H:372] Creating stopping criterion with minIter 185 frequency 7
[OGL LOG][Proc: 0]p: generate_solver: 0.023 [ms]
[OGL LOG][Proc: 0]p: solve: 204.931 [ms]
[OGL LOG][Proc: 0]p: copy_x_back: 0.431 [ms]
[OGL LOG][lduLduBase.H:319] 
Statistics:
	Time per iteration: 663 [mu s]
	Time per residual norm calculation: 223.000000 [mu s]
	Time per iteration and DOF: 0.663000 [ns]
	Retrieve results bandwith 2.320000 [GByte/s]
[OGL LOG][Proc: 0]p: solve_multi_gpu: 208.306 [ms]
nonehipGKOCG:  Solving for p, Initial residual = 0.0180283, Final residual = 7.9907e-05, No Iterations 309
linear solve p 217.041 [ms]
[INFO] SolveP: 217.067 [ms]
time step continuity errors : sum local = 1.13691e-08, global = 1.4302e-21, cumulative = -8.42311e-20
[INFO] ContinuityError: 2.256 [ms]
[INFO] CorrectBoundary: 0.211 [ms]
[INFO] PISOStep: 265.562 [ms]
[INFO] TimeStep: 757.601 [ms]
ExecutionTime = 15.51 s  ClockTime = 16 s

Time = 0.007

Courant Number mean: 0.0664084 max: 0.47574
[INFO] MatrixAssemblyU: 23.813 [ms]
DILUPBiCGStab:  Solving for Ux, Initial residual = 0.00595609, Final residual = 1.71557e-05, No Iterations 5
DILUPBiCGStab:  Solving for Uy, Initial residual = 0.0127637, Final residual = 2.74232e-05, No Iterations 5
DILUPBiCGStab:  Solving for Uz, Initial residual = 0.0252426, Final residual = 5.56306e-05, No Iterations 5
linear solve U 168.255 [ms]
[INFO] MomentumPredictor: 176.173 [ms]
[INFO] MatrixAssemblyPI: 23.24 [ms]
[INFO] AdjustPhi: 3.294 [ms]
[INFO] ConstrainPressure: 0.003 [ms]
[INFO] MatrixAssemblyPII: 8.303 [ms]
[OGL LOG][Proc: 0]: global_index_init: 0.035 [ms]
[OGL LOG][Proc: 0]p_local_coeffs: call_update: 0 [ms]
[OGL LOG][Proc: 0]p_non_local_coeffs: call_update: 0 [ms]
[OGL LOG][Proc: 0]p: update_local_matrix_data: 7.208 [ms]
[OGL LOG][Proc: 0]p: update_non_local_matrix_data: 0.435 [ms]
[OGL LOG][Proc: 0]p_matrix: call_update: 2.408 [ms]
[OGL LOG][Proc: 0]p_rhs: call_update: 1.217 [ms]
[OGL LOG][Proc: 0]p: init_precond: 0.04 [ms]
[OGL LOG][StoppingCriterion.H:372] Creating stopping criterion with minIter 185 frequency 7
[OGL LOG][Proc: 0]p: generate_solver: 0.025 [ms]
[OGL LOG][Proc: 0]p: solve: 210.051 [ms]
[OGL LOG][Proc: 0]p: copy_x_back: 0.588 [ms]
[OGL LOG][lduLduBase.H:319] 
Statistics:
	Time per iteration: 695 [mu s]
	Time per residual norm calculation: 214.000000 [mu s]
	Time per iteration and DOF: 0.695000 [ns]
	Retrieve results bandwith 1.700000 [GByte/s]
[OGL LOG][Proc: 0]p: solve_multi_gpu: 214.627 [ms]
nonehipGKOCG:  Solving for p, Initial residual = 0.0160761, Final residual = 9.7493e-05, No Iterations 302
linear solve p 223.445 [ms]
[INFO] SolveP: 223.471 [ms]
time step continuity errors : sum local = 1.40417e-08, global = 5.23972e-21, cumulative = -7.89913e-20
[INFO] ContinuityError: 2.087 [ms]
[INFO] CorrectBoundary: 0.678 [ms]
[INFO] PISOStep: 274.196 [ms]
[INFO] MatrixAssemblyPI: 25.233 [ms]
[INFO] AdjustPhi: 0.752 [ms]
[INFO] ConstrainPressure: 0.002 [ms]
[INFO] MatrixAssemblyPII: 8.727 [ms]
[OGL LOG][Proc: 0]: global_index_init: 0.064 [ms]
[OGL LOG][Proc: 0]p_local_coeffs: call_update: 0 [ms]
[OGL LOG][Proc: 0]p_non_local_coeffs: call_update: 0 [ms]
[OGL LOG][Proc: 0]p: update_local_matrix_data: 7.837 [ms]
[OGL LOG][Proc: 0]p: update_non_local_matrix_data: 0.449 [ms]
[OGL LOG][Proc: 0]p_matrix: call_update: 2.307 [ms]
[OGL LOG][Proc: 0]p_rhs: call_update: 0.163 [ms]
[OGL LOG][Proc: 0]p: init_precond: 0.041 [ms]
[OGL LOG][StoppingCriterion.H:372] Creating stopping criterion with minIter 181 frequency 6
[OGL LOG][Proc: 0]p: generate_solver: 0.022 [ms]
[OGL LOG][Proc: 0]p: solve: 199.217 [ms]
[OGL LOG][Proc: 0]p: copy_x_back: 0.457 [ms]
[OGL LOG][lduLduBase.H:319] 
Statistics:
	Time per iteration: 661 [mu s]
	Time per residual norm calculation: 227.000000 [mu s]
	Time per iteration and DOF: 0.661000 [ns]
	Retrieve results bandwith 2.188000 [GByte/s]
[OGL LOG][Proc: 0]p: solve_multi_gpu: 202.494 [ms]
nonehipGKOCG:  Solving for p, Initial residual = 0.0145494, Final residual = 9.51678e-05, No Iterations 301
linear solve p 211.954 [ms]
[INFO] SolveP: 211.98 [ms]
time step continuity errors : sum local = 1.34499e-08, global = -4.98603e-22, cumulative = -7.94899e-20
[INFO] ContinuityError: 3.126 [ms]
[INFO] CorrectBoundary: 0.096 [ms]
[INFO] PISOStep: 260.591 [ms]
[INFO] TimeStep: 737.964 [ms]
ExecutionTime = 16.23 s  ClockTime = 17 s

Time = 0.0075

Courant Number mean: 0.0678549 max: 0.476379
[INFO] MatrixAssemblyU: 24.782 [ms]
DILUPBiCGStab:  Solving for Ux, Initial residual = 0.00543621, Final residual = 1.52681e-05, No Iterations 5
DILUPBiCGStab:  Solving for Uy, Initial residual = 0.0116643, Final residual = 2.49697e-05, No Iterations 5
DILUPBiCGStab:  Solving for Uz, Initial residual = 0.0233855, Final residual = 5.08424e-05, No Iterations 5
linear solve U 162.349 [ms]
[INFO] MomentumPredictor: 173.47 [ms]
[INFO] MatrixAssemblyPI: 25.877 [ms]
[INFO] AdjustPhi: 0.723 [ms]
[INFO] ConstrainPressure: 0.002 [ms]
[INFO] MatrixAssemblyPII: 7.439 [ms]
[OGL LOG][Proc: 0]: global_index_init: 0.032 [ms]
[OGL LOG][Proc: 0]p_local_coeffs: call_update: 0 [ms]
[OGL LOG][Proc: 0]p_non_local_coeffs: call_update: 0 [ms]
[OGL LOG][Proc: 0]p: update_local_matrix_data: 7.204 [ms]
[OGL LOG][Proc: 0]p: update_non_local_matrix_data: 0.363 [ms]
[OGL LOG][Proc: 0]p_matrix: call_update: 2.76 [ms]
[OGL LOG][Proc: 0]p_rhs: call_update: 0.733 [ms]
[OGL LOG][Proc: 0]p: init_precond: 0.04 [ms]
[OGL LOG][StoppingCriterion.H:372] Creating stopping criterion with minIter 180 frequency 7
[OGL LOG][Proc: 0]p: generate_solver: 0.027 [ms]
[OGL LOG][Proc: 0]p: solve: 208.856 [ms]
[OGL LOG][Proc: 0]p: copy_x_back: 0.422 [ms]
[OGL LOG][lduLduBase.H:319] 
Statistics:
	Time per iteration: 675 [mu s]
	Time per residual norm calculation: 213.000000 [mu s]
	Time per iteration and DOF: 0.675000 [ns]
	Retrieve results bandwith 2.369000 [GByte/s]
[OGL LOG][Proc: 0]p: solve_multi_gpu: 213.129 [ms]
nonehipGKOCG:  Solving for p, Initial residual = 0.0140141, Final residual = 8.88257e-05, No Iterations 309
linear solve p 221.81 [ms]
[INFO] SolveP: 221.832 [ms]
time step continuity errors : sum local = 1.35202e-08, global = 4.59985e-21, cumulative = -7.48901e-20
[INFO] ContinuityError: 4.445 [ms]
[INFO] CorrectBoundary: 0.176 [ms]
[INFO] PISOStep: 271.382 [ms]
[INFO] MatrixAssemblyPI: 26.689 [ms]
[INFO] AdjustPhi: 2.536 [ms]
[INFO] ConstrainPressure: 0.002 [ms]
[INFO] MatrixAssemblyPII: 7.762 [ms]
[OGL LOG][Proc: 0]: global_index_init: 0.025 [ms]
[OGL LOG][Proc: 0]p_local_coeffs: call_update: 0 [ms]
[OGL LOG][Proc: 0]p_non_local_coeffs: call_update: 0 [ms]
[OGL LOG][Proc: 0]p: update_local_matrix_data: 7.159 [ms]
[OGL LOG][Proc: 0]p: update_non_local_matrix_data: 0.502 [ms]
[OGL LOG][Proc: 0]p_matrix: call_update: 1.774 [ms]
[OGL LOG][Proc: 0]p_rhs: call_update: 0.979 [ms]
[OGL LOG][Proc: 0]p: init_precond: 0.038 [ms]
[OGL LOG][StoppingCriterion.H:372] Creating stopping criterion with minIter 185 frequency 6
[OGL LOG][Proc: 0]p: generate_solver: 0.023 [ms]
[OGL LOG][Proc: 0]p: solve: 205.346 [ms]
[OGL LOG][Proc: 0]p: copy_x_back: 0.429 [ms]
[OGL LOG][lduLduBase.H:319] 
Statistics:
	Time per iteration: 682 [mu s]
	Time per residual norm calculation: 208.000000 [mu s]
	Time per iteration and DOF: 0.682000 [ns]
	Retrieve results bandwith 2.331000 [GByte/s]
[OGL LOG][Proc: 0]p: solve_multi_gpu: 208.904 [ms]
nonehipGKOCG:  Solving for p, Initial residual = 0.0127801, Final residual = 9.38535e-05, No Iterations 301
linear solve p 217.575 [ms]
[INFO] SolveP: 217.596 [ms]
time step continuity errors : sum local = 1.34519e-08, global = 1.07451e-21, cumulative = -7.38156e-20
[INFO] ContinuityError: 4.308 [ms]
[INFO] CorrectBoundary: 0.281 [ms]
[INFO] PISOStep: 269.469 [ms]
[INFO] TimeStep: 742.214 [ms]
ExecutionTime = 16.97 s  ClockTime = 18 s

Time = 0.008

Courant Number mean: 0.0691917 max: 0.476948
[INFO] MatrixAssemblyU: 24.048 [ms]
DILUPBiCGStab:  Solving for Ux, Initial residual = 0.00498886, Final residual = 1.38355e-05, No Iterations 5
DILUPBiCGStab:  Solving for Uy, Initial residual = 0.0107234, Final residual = 2.28766e-05, No Iterations 5
DILUPBiCGStab:  Solving for Uz, Initial residual = 0.0215949, Final residual = 4.95072e-05, No Iterations 5
linear solve U 162.844 [ms]
[INFO] MomentumPredictor: 174.651 [ms]
[INFO] MatrixAssemblyPI: 25.862 [ms]
[INFO] AdjustPhi: 0.985 [ms]
[INFO] ConstrainPressure: 0.003 [ms]
[INFO] MatrixAssemblyPII: 8.054 [ms]
[OGL LOG][Proc: 0]: global_index_init: 0.016 [ms]
[OGL LOG][Proc: 0]p_local_coeffs: call_update: 0 [ms]
[OGL LOG][Proc: 0]p_non_local_coeffs: call_update: 0 [ms]
[OGL LOG][Proc: 0]p: update_local_matrix_data: 7.345 [ms]
[OGL LOG][Proc: 0]p: update_non_local_matrix_data: 0.377 [ms]
[OGL LOG][Proc: 0]p_matrix: call_update: 2.011 [ms]
[OGL LOG][Proc: 0]p_rhs: call_update: 1.506 [ms]
[OGL LOG][Proc: 0]p: init_precond: 0.04 [ms]
[OGL LOG][StoppingCriterion.H:372] Creating stopping criterion with minIter 180 frequency 6
[OGL LOG][Proc: 0]p: generate_solver: 0.025 [ms]
[OGL LOG][Proc: 0]p: solve: 203.807 [ms]
[OGL LOG][Proc: 0]p: copy_x_back: 0.414 [ms]
[OGL LOG][lduLduBase.H:319] 
Statistics:
	Time per iteration: 663 [mu s]
	Time per residual norm calculation: 222.000000 [mu s]
	Time per iteration and DOF: 0.663000 [ns]
	Retrieve results bandwith 2.415000 [GByte/s]
[OGL LOG][Proc: 0]p: solve_multi_gpu: 208.108 [ms]
nonehipGKOCG:  Solving for p, Initial residual = 0.0119137, Final residual = 9.45823e-05, No Iterations 307
linear solve p 216.955 [ms]
[INFO] SolveP: 216.98 [ms]
time step continuity errors : sum local = 1.41519e-08, global = -3.96199e-21, cumulative = -7.77776e-20
[INFO] ContinuityError: 3.462 [ms]
[INFO] CorrectBoundary: 0.276 [ms]
[INFO] PISOStep: 268.758 [ms]
[INFO] MatrixAssemblyPI: 24.778 [ms]
[INFO] AdjustPhi: 0.772 [ms]
[INFO] ConstrainPressure: 0.002 [ms]
[INFO] MatrixAssemblyPII: 8.532 [ms]
[OGL LOG][Proc: 0]: global_index_init: 0.062 [ms]
[OGL LOG][Proc: 0]p_local_coeffs: call_update: 0 [ms]
[OGL LOG][Proc: 0]p_non_local_coeffs: call_update: 0 [ms]
[OGL LOG][Proc: 0]p: update_local_matrix_data: 7.103 [ms]
[OGL LOG][Proc: 0]p: update_non_local_matrix_data: 0.488 [ms]
[OGL LOG][Proc: 0]p_matrix: call_update: 2.28 [ms]
[OGL LOG][Proc: 0]p_rhs: call_update: 0.401 [ms]
[OGL LOG][Proc: 0]p: init_precond: 0.039 [ms]
[OGL LOG][StoppingCriterion.H:372] Creating stopping criterion with minIter 184 frequency 7
[OGL LOG][Proc: 0]p: generate_solver: 0.022 [ms]
[OGL LOG][Proc: 0]p: solve: 199.274 [ms]
[OGL LOG][Proc: 0]p: copy_x_back: 0.432 [ms]
[OGL LOG][lduLduBase.H:319] 
Statistics:
	Time per iteration: 659 [mu s]
	Time per residual norm calculation: 213.000000 [mu s]
	Time per iteration and DOF: 0.659000 [ns]
	Retrieve results bandwith 2.314000 [GByte/s]
[OGL LOG][Proc: 0]p: solve_multi_gpu: 202.725 [ms]
nonehipGKOCG:  Solving for p, Initial residual = 0.0110719, Final residual = 9.50044e-05, No Iterations 302
linear solve p 211.499 [ms]
[INFO] SolveP: 211.523 [ms]
time step continuity errors : sum local = 1.35401e-08, global = 7.13702e-23, cumulative = -7.77062e-20
[INFO] ContinuityError: 3.737 [ms]
[INFO] CorrectBoundary: 0.102 [ms]
[INFO] PISOStep: 260.056 [ms]
[INFO] TimeStep: 732.702 [ms]
ExecutionTime = 17.7 s  ClockTime = 18 s

Time = 0.0085

Courant Number mean: 0.0704368 max: 0.477455
[INFO] MatrixAssemblyU: 24.016 [ms]
DILUPBiCGStab:  Solving for Ux, Initial residual = 0.00460119, Final residual = 1.25074e-05, No Iterations 5
DILUPBiCGStab:  Solving for Uy, Initial residual = 0.00989117, Final residual = 2.11071e-05, No Iterations 5
DILUPBiCGStab:  Solving for Uz, Initial residual = 0.0202822, Final residual = 4.74282e-05, No Iterations 5
linear solve U 163.636 [ms]
[INFO] MomentumPredictor: 174.819 [ms]
[INFO] MatrixAssemblyPI: 25.602 [ms]
[INFO] AdjustPhi: 0.736 [ms]
[INFO] ConstrainPressure: 0.002 [ms]
[INFO] MatrixAssemblyPII: 8.341 [ms]
[OGL LOG][Proc: 0]: global_index_init: 0.027 [ms]
[OGL LOG][Proc: 0]p_local_coeffs: call_update: 0 [ms]
[OGL LOG][Proc: 0]p_non_local_coeffs: call_update: 0 [ms]
[OGL LOG][Proc: 0]p: update_local_matrix_data: 7.137 [ms]
[OGL LOG][Proc: 0]p: update_non_local_matrix_data: 0.422 [ms]
[OGL LOG][Proc: 0]p_matrix: call_update: 2.661 [ms]
[OGL LOG][Proc: 0]p_rhs: call_update: 0.716 [ms]
[OGL LOG][Proc: 0]p: init_precond: 0.038 [ms]
[OGL LOG][StoppingCriterion.H:372] Creating stopping criterion with minIter 181 frequency 6
[OGL LOG][Proc: 0]p: generate_solver: 0.024 [ms]
[OGL LOG][Proc: 0]p: solve: 205.778 [ms]
[OGL LOG][Proc: 0]p: copy_x_back: 0.441 [ms]
[OGL LOG][lduLduBase.H:319] 
Statistics:
	Time per iteration: 657 [mu s]
	Time per residual norm calculation: 223.000000 [mu s]
	Time per iteration and DOF: 0.657000 [ns]
	Retrieve results bandwith 2.267000 [GByte/s]
[OGL LOG][Proc: 0]p: solve_multi_gpu: 209.957 [ms]
nonehipGKOCG:  Solving for p, Initial residual = 0.0108027, Final residual = 9.53037e-05, No Iterations 313
linear solve p 218.637 [ms]
[INFO] SolveP: 218.662 [ms]
time step continuity errors : sum local = 1.51285e-08, global = 6.29484e-22, cumulative = -7.70767e-20
[INFO] ContinuityError: 2.389 [ms]
[INFO] CorrectBoundary: 0.07 [ms]
[INFO] PISOStep: 267.191 [ms]
[INFO] MatrixAssemblyPI: 24.347 [ms]
[INFO] AdjustPhi: 1.615 [ms]
[INFO] ConstrainPressure: 0.002 [ms]
[INFO] MatrixAssemblyPII: 8.152 [ms]
[OGL LOG][Proc: 0]: global_index_init: 0.022 [ms]
[OGL LOG][Proc: 0]p_local_coeffs: call_update: 0 [ms]
[OGL LOG][Proc: 0]p_non_local_coeffs: call_update: 0 [ms]
[OGL LOG][Proc: 0]p: update_local_matrix_data: 7.28 [ms]
[OGL LOG][Proc: 0]p: update_non_local_matrix_data: 0.353 [ms]
[OGL LOG][Proc: 0]p_matrix: call_update: 2.29 [ms]
[OGL LOG][Proc: 0]p_rhs: call_update: 0.225 [ms]
[OGL LOG][Proc: 0]p: init_precond: 0.036 [ms]
[OGL LOG][StoppingCriterion.H:372] Creating stopping criterion with minIter 187 frequency 7
[OGL LOG][Proc: 0]p: generate_solver: 0.024 [ms]
[OGL LOG][Proc: 0]p: solve: 199.2 [ms]
[OGL LOG][Proc: 0]p: copy_x_back: 0.425 [ms]
[OGL LOG][lduLduBase.H:319] 
Statistics:
	Time per iteration: 659 [mu s]
	Time per residual norm calculation: 216.000000 [mu s]
	Time per iteration and DOF: 0.659000 [ns]
	Retrieve results bandwith 2.352000 [GByte/s]
[OGL LOG][Proc: 0]p: solve_multi_gpu: 202.541 [ms]
nonehipGKOCG:  Solving for p, Initial residual = 0.0100936, Final residual = 9.45371e-05, No Iterations 302
linear solve p 211.325 [ms]
[INFO] SolveP: 211.346 [ms]
time step continuity errors : sum local = 1.37845e-08, global = -4.31835e-21, cumulative = -8.13951e-20
[INFO] ContinuityError: 2.298 [ms]
[INFO] CorrectBoundary: 0.208 [ms]
[INFO] PISOStep: 258.245 [ms]
[INFO] TimeStep: 728.191 [ms]
ExecutionTime = 18.41 s  ClockTime = 19 s

Time = 0.009

Courant Number mean: 0.0715997 max: 0.477912
[INFO] MatrixAssemblyU: 23.958 [ms]
DILUPBiCGStab:  Solving for Ux, Initial residual = 0.00425365, Final residual = 1.14485e-05, No Iterations 5
DILUPBiCGStab:  Solving for Uy, Initial residual = 0.00918126, Final residual = 1.95969e-05, No Iterations 5
DILUPBiCGStab:  Solving for Uz, Initial residual = 0.0188797, Final residual = 4.92763e-05, No Iterations 5
linear solve U 163.376 [ms]
[INFO] MomentumPredictor: 175.059 [ms]
[INFO] MatrixAssemblyPI: 25.608 [ms]
[INFO] AdjustPhi: 0.909 [ms]
[INFO] ConstrainPressure: 0.003 [ms]
[INFO] MatrixAssemblyPII: 8.017 [ms]
[OGL LOG][Proc: 0]: global_index_init: 0.024 [ms]
[OGL LOG][Proc: 0]p_local_coeffs: call_update: 0 [ms]
[OGL LOG][Proc: 0]p_non_local_coeffs: call_update: 0 [ms]
[OGL LOG][Proc: 0]p: update_local_matrix_data: 7.206 [ms]
[OGL LOG][Proc: 0]p: update_non_local_matrix_data: 0.489 [ms]
[OGL LOG][Proc: 0]p_matrix: call_update: 2.77 [ms]
[OGL LOG][Proc: 0]p_rhs: call_update: 0.493 [ms]
[OGL LOG][Proc: 0]p: init_precond: 0.039 [ms]
[OGL LOG][StoppingCriterion.H:372] Creating stopping criterion with minIter 181 frequency 6
[OGL LOG][Proc: 0]p: generate_solver: 0.023 [ms]
[OGL LOG][Proc: 0]p: solve: 207.044 [ms]
[OGL LOG][Proc: 0]p: copy_x_back: 0.434 [ms]
[OGL LOG][lduLduBase.H:319] 
Statistics:
	Time per iteration: 661 [mu s]
	Time per residual norm calculation: 216.000000 [mu s]
	Time per iteration and DOF: 0.661000 [ns]
	Retrieve results bandwith 2.304000 [GByte/s]
[OGL LOG][Proc: 0]p: solve_multi_gpu: 211.125 [ms]
nonehipGKOCG:  Solving for p, Initial residual = 0.00973048, Final residual = 9.79675e-05, No Iterations 313
linear solve p 219.939 [ms]
[INFO] SolveP: 219.962 [ms]
time step continuity errors : sum local = 1.55453e-08, global = 1.07014e-20, cumulative = -7.06936e-20
[INFO] ContinuityError: 2.566 [ms]
[INFO] CorrectBoundary: 0.089 [ms]
[INFO] PISOStep: 268.379 [ms]
[INFO] MatrixAssemblyPI: 24.638 [ms]
[INFO] AdjustPhi: 0.722 [ms]
[INFO] ConstrainPressure: 0.002 [ms]
[INFO] MatrixAssemblyPII: 7.715 [ms]
[OGL LOG][Proc: 0]: global_index_init: 0.049 [ms]
[OGL LOG][Proc: 0]p_local_coeffs: call_update: 0 [ms]
[OGL LOG][Proc: 0]p_non_local_coeffs: call_update: 0 [ms]
[OGL LOG][Proc: 0]p: update_local_matrix_data: 7.081 [ms]
[OGL LOG][Proc: 0]p: update_non_local_matrix_data: 0.487 [ms]
[OGL LOG][Proc: 0]p_matrix: call_update: 2.115 [ms]
[OGL LOG][Proc: 0]p_rhs: call_update: 0.42 [ms]
[OGL LOG][Proc: 0]p: init_precond: 0.042 [ms]
[OGL LOG][StoppingCriterion.H:372] Creating stopping criterion with minIter 187 frequency 6
[OGL LOG][Proc: 0]p: generate_solver: 0.023 [ms]
[OGL LOG][Proc: 0]p: solve: 202.759 [ms]
[OGL LOG][Proc: 0]p: copy_x_back: 0.399 [ms]
[OGL LOG][lduLduBase.H:319] 
Statistics:
	Time per iteration: 660 [mu s]
	Time per residual norm calculation: 212.000000 [mu s]
	Time per iteration and DOF: 0.660000 [ns]
	Retrieve results bandwith 2.506000 [GByte/s]
[OGL LOG][Proc: 0]p: solve_multi_gpu: 206.07 [ms]
nonehipGKOCG:  Solving for p, Initial residual = 0.00915985, Final residual = 8.46469e-05, No Iterations 307
linear solve p 214.839 [ms]
[INFO] SolveP: 214.862 [ms]
time step continuity errors : sum local = 1.23381e-08, global = 2.4132e-21, cumulative = -6.82804e-20
[INFO] ContinuityError: 2.379 [ms]
[INFO] CorrectBoundary: 0.18 [ms]
[INFO] PISOStep: 262.491 [ms]
[INFO] TimeStep: 733.656 [ms]
ExecutionTime = 19.13 s  ClockTime = 20 s

Time = 0.0095

Courant Number mean: 0.0726862 max: 0.478325
[INFO] MatrixAssemblyU: 23.822 [ms]
DILUPBiCGStab:  Solving for Ux, Initial residual = 0.00395796, Final residual = 1.04722e-05, No Iterations 5
DILUPBiCGStab:  Solving for Uy, Initial residual = 0.00852219, Final residual = 1.83457e-05, No Iterations 5
DILUPBiCGStab:  Solving for Uz, Initial residual = 0.0179692, Final residual = 5.04929e-05, No Iterations 5
linear solve U 184.483 [ms]
[INFO] MomentumPredictor: 196.232 [ms]
[INFO] MatrixAssemblyPI: 23.866 [ms]
[INFO] AdjustPhi: 3.146 [ms]
[INFO] ConstrainPressure: 0.003 [ms]
[INFO] MatrixAssemblyPII: 6.364 [ms]
[OGL LOG][Proc: 0]: global_index_init: 0.007 [ms]
[OGL LOG][Proc: 0]p_local_coeffs: call_update: 0 [ms]
[OGL LOG][Proc: 0]p_non_local_coeffs: call_update: 0 [ms]
[OGL LOG][Proc: 0]p: update_local_matrix_data: 7.095 [ms]
[OGL LOG][Proc: 0]p: update_non_local_matrix_data: 1.147 [ms]
[OGL LOG][Proc: 0]p_matrix: call_update: 2.105 [ms]
[OGL LOG][Proc: 0]p_rhs: call_update: 1.312 [ms]
[OGL LOG][Proc: 0]p: init_precond: 0.038 [ms]
[OGL LOG][StoppingCriterion.H:372] Creating stopping criterion with minIter 184 frequency 6
[OGL LOG][Proc: 0]p: generate_solver: 0.023 [ms]
[OGL LOG][Proc: 0]p: solve: 456.329 [ms]
[OGL LOG][Proc: 0]p: copy_x_back: 0.38 [ms]
[OGL LOG][lduLduBase.H:319] 
Statistics:
	Time per iteration: 660 [mu s]
	Time per residual norm calculation: 222.000000 [mu s]
	Time per iteration and DOF: 0.660000 [ns]
	Retrieve results bandwith 2.631000 [GByte/s]
[OGL LOG][Proc: 0]p: solve_multi_gpu: 460.498 [ms]
nonehipGKOCG:  Solving for p, Initial residual = 0.00909228, Final residual = 7.51207e-05, No Iterations 691
linear solve p 470.071 [ms]
[INFO] SolveP: 470.095 [ms]
time step continuity errors : sum local = 1.05048e-08, global = -1.43627e-20, cumulative = -8.26431e-20
[INFO] ContinuityError: 2.553 [ms]
[INFO] CorrectBoundary: 0.227 [ms]
[INFO] PISOStep: 519.468 [ms]
[INFO] MatrixAssemblyPI: 24.223 [ms]
[INFO] AdjustPhi: 2.176 [ms]
[INFO] ConstrainPressure: 0.002 [ms]
[INFO] MatrixAssemblyPII: 8.303 [ms]
[OGL LOG][Proc: 0]: global_index_init: 0.011 [ms]
[OGL LOG][Proc: 0]p_local_coeffs: call_update: 0 [ms]
[OGL LOG][Proc: 0]p_non_local_coeffs: call_update: 0 [ms]
[OGL LOG][Proc: 0]p: update_local_matrix_data: 7.073 [ms]
[OGL LOG][Proc: 0]p: update_non_local_matrix_data: 0.472 [ms]
[OGL LOG][Proc: 0]p_matrix: call_update: 2.404 [ms]
[OGL LOG][Proc: 0]p_rhs: call_update: 0.391 [ms]
[OGL LOG][Proc: 0]p: init_precond: 0.04 [ms]
[OGL LOG][StoppingCriterion.H:372] Creating stopping criterion with minIter 414 frequency 11
[OGL LOG][Proc: 0]p: generate_solver: 0.024 [ms]
[OGL LOG][Proc: 0]p: solve: 444.575 [ms]
[OGL LOG][Proc: 0]p: copy_x_back: 0.426 [ms]
[OGL LOG][lduLduBase.H:319] 
Statistics:
	Time per iteration: 650 [mu s]
	Time per residual norm calculation: 223.000000 [mu s]
	Time per iteration and DOF: 0.650000 [ns]
	Retrieve results bandwith 2.347000 [GByte/s]
[OGL LOG][Proc: 0]p: solve_multi_gpu: 448.159 [ms]
nonehipGKOCG:  Solving for p, Initial residual = 0.00860716, Final residual = 9.82459e-05, No Iterations 683
linear solve p 456.839 [ms]
[INFO] SolveP: 456.863 [ms]
time step continuity errors : sum local = 1.37424e-08, global = -1.01243e-20, cumulative = -9.27674e-20
[INFO] ContinuityError: 3.178 [ms]
[INFO] CorrectBoundary: 0.184 [ms]
[INFO] PISOStep: 506.966 [ms]
[INFO] TimeStep: 1250.25 [ms]
ExecutionTime = 20.38 s  ClockTime = 21 s

Time = 0.01

Courant Number mean: 0.0737033 max: 0.478702
[INFO] MatrixAssemblyU: 23.941 [ms]
DILUPBiCGStab:  Solving for Ux, Initial residual = 0.00368207, Final residual = 9.64513e-06, No Iterations 5
DILUPBiCGStab:  Solving for Uy, Initial residual = 0.00794928, Final residual = 1.69795e-05, No Iterations 5
DILUPBiCGStab:  Solving for Uz, Initial residual = 0.0164421, Final residual = 3.70751e-05, No Iterations 5
linear solve U 168.784 [ms]
[INFO] MomentumPredictor: 180.374 [ms]
[INFO] MatrixAssemblyPI: 26.154 [ms]
[INFO] AdjustPhi: 0.741 [ms]
[INFO] ConstrainPressure: 0.002 [ms]
[INFO] MatrixAssemblyPII: 8.941 [ms]
[OGL LOG][Proc: 0]: global_index_init: 0.059 [ms]
[OGL LOG][Proc: 0]p_local_coeffs: call_update: 0 [ms]
[OGL LOG][Proc: 0]p_non_local_coeffs: call_update: 0 [ms]
[OGL LOG][Proc: 0]p: update_local_matrix_data: 7.905 [ms]
[OGL LOG][Proc: 0]p: update_non_local_matrix_data: 0.481 [ms]
[OGL LOG][Proc: 0]p_matrix: call_update: 2.916 [ms]
[OGL LOG][Proc: 0]p_rhs: call_update: 0.177 [ms]
[OGL LOG][Proc: 0]p: init_precond: 0.04 [ms]
[OGL LOG][StoppingCriterion.H:372] Creating stopping criterion with minIter 409 frequency 11
[OGL LOG][Proc: 0]p: generate_solver: 0.022 [ms]
[OGL LOG][Proc: 0]p: solve: 437.8 [ms]
[OGL LOG][Proc: 0]p: copy_x_back: 0.525 [ms]
[OGL LOG][lduLduBase.H:319] 
Statistics:
	Time per iteration: 640 [mu s]
	Time per residual norm calculation: 231.000000 [mu s]
	Time per iteration and DOF: 0.640000 [ns]
	Retrieve results bandwith 1.904000 [GByte/s]
[OGL LOG][Proc: 0]p: solve_multi_gpu: 441.743 [ms]
nonehipGKOCG:  Solving for p, Initial residual = 0.00829356, Final residual = 9.97588e-05, No Iterations 683
linear solve p 451.347 [ms]
[INFO] SolveP: 451.373 [ms]
time step continuity errors : sum local = 1.39546e-08, global = 3.3599e-21, cumulative = -8.94075e-20
[INFO] ContinuityError: 3.515 [ms]
[INFO] CorrectBoundary: 0.079 [ms]
[INFO] PISOStep: 502.587 [ms]
[INFO] MatrixAssemblyPI: 25.455 [ms]
[INFO] AdjustPhi: 0.888 [ms]
[INFO] ConstrainPressure: 0.002 [ms]
[INFO] MatrixAssemblyPII: 8.264 [ms]
[OGL LOG][Proc: 0]: global_index_init: 0.013 [ms]
[OGL LOG][Proc: 0]p_local_coeffs: call_update: 0 [ms]
[OGL LOG][Proc: 0]p_non_local_coeffs: call_update: 0 [ms]
[OGL LOG][Proc: 0]p: update_local_matrix_data: 7.255 [ms]
[OGL LOG][Proc: 0]p: update_non_local_matrix_data: 0.381 [ms]
[OGL LOG][Proc: 0]p_matrix: call_update: 2.183 [ms]
[OGL LOG][Proc: 0]p_rhs: call_update: 0.261 [ms]
[OGL LOG][Proc: 0]p: init_precond: 0.037 [ms]
[OGL LOG][StoppingCriterion.H:372] Creating stopping criterion with minIter 409 frequency 11
[OGL LOG][Proc: 0]p: generate_solver: 0.024 [ms]
[OGL LOG][Proc: 0]p: solve: 440.154 [ms]
[OGL LOG][Proc: 0]p: copy_x_back: 0.449 [ms]
[OGL LOG][lduLduBase.H:319] 
Statistics:
	Time per iteration: 644 [mu s]
	Time per residual norm calculation: 239.000000 [mu s]
	Time per iteration and DOF: 0.644000 [ns]
	Retrieve results bandwith 2.227000 [GByte/s]
[OGL LOG][Proc: 0]p: solve_multi_gpu: 443.427 [ms]
nonehipGKOCG:  Solving for p, Initial residual = 0.00786737, Final residual = 8.87474e-05, No Iterations 683
linear solve p 452.223 [ms]
[INFO] SolveP: 452.247 [ms]
time step continuity errors : sum local = 1.24162e-08, global = -4.41699e-21, cumulative = -9.38245e-20
[INFO] ContinuityError: 2.215 [ms]
[INFO] CorrectBoundary: 0.243 [ms]
[INFO] PISOStep: 499.974 [ms]
[INFO] TimeStep: 1209.93 [ms]
ExecutionTime = 21.56 s  ClockTime = 22 s

End

Finalising parallel run
