/*---------------------------------------------------------------------------*\
| =========                 |                                                 |
| \\      /  F ield         | OpenFOAM: The Open Source CFD Toolbox           |
|  \\    /   O peration     | Version:  2306                                  |
|   \\  /    A nd           | Website:  www.openfoam.com                      |
|    \\/     M anipulation  |                                                 |
\*---------------------------------------------------------------------------*/
Build  : a6e826bd55-20230630 OPENFOAM=2306 version=v2306
Arch   : "LSB;label=32;scalar=64"
Exec   : icoFoam -parallel -case /tmp/lidDrivenCavity/workspace/0b4b629d9fe611977991bf6fd52e0ba1/case
Date   : Dec 16 2023
Time   : 12:50:57
Host   : nla-gpu2.ianm.kit.edu
PID    : 175822
I/O    : uncollated
Case   : /tmp/lidDrivenCavity/workspace/0b4b629d9fe611977991bf6fd52e0ba1/case
nProcs : 8
Hosts  :
(
    (nla-gpu2.ianm.kit.edu 8)
)
Pstream initialized with:
    floatTransfer      : false
    nProcsSimpleSum    : 0
    nonBlockingExchange: 0 (tuning: 0)
    exchange algorithm : -1
    commsType          : nonBlocking
    polling iterations : 0
trapFpe: Floating point exception trapping enabled (FOAM_SIGFPE).
fileModificationChecking : Monitoring run-time modified files using timeStampMaster (fileModificationSkew 5, maxFileModificationPolls 20)
allowSystemOperations : Allowing user-supplied system call operations

// * * * * * * * * * * * * * * * * * * * * * * * * * * * * * * * * * * * * * //
Create time

--> FOAM Warning : 
    From void* Foam::dlLibraryTable::openLibrary(const Foam::fileName&, bool)
    in file db/dynamicLibrary/dlLibraryTable/dlLibraryTable.C at line 188
    Could not load "libpetscFoam.so"
libpetscFoam.so: cannot open shared object file: No such file or directory
Create mesh for time = 0


PISO: Operating solver in PISO mode

Reading transportProperties

Reading field p

Reading field U

Reading/calculating face flux field phi


Starting time loop

Time = 0.000166

Courant Number mean: 8.14055e-18 max: 3.11001e-14
[INFO] MatrixAssemblyU: 348.01 [ms]
DILUPBiCGStab:  Solving for Ux, Initial residual = 1, Final residual = 0.0159896, No Iterations 5
DILUPBiCGStab:  Solving for Uy:  solution singularity
DILUPBiCGStab:  Solving for Uz:  solution singularity
[INFO] MomentumPredictor: 1580.64 [ms]
[INFO] MatrixAssemblyPI: 353.272 [ms]
[INFO] AdjustPhi: 19.842 [ms]
[INFO] ConstrainPressure: 0.015 [ms]
[INFO] MatrixAssemblyPII: 99.129 [ms]
nonePCG:  Solving for p, Initial residual = 1, Final residual = 9.82344e-05, No Iterations 2430
[INFO] SolveP: 110399 [ms]
time step continuity errors : sum local = 3.97604e-09, global = 2.15512e-21, cumulative = 2.15512e-21
[INFO] ContinuityError: 47.355 [ms]
[INFO] CorrectBoundary: 1.097 [ms]
[INFO] PISOStep: 111032 [ms]
[INFO] MatrixAssemblyPI: 336.192 [ms]
[INFO] AdjustPhi: 19.723 [ms]
[INFO] ConstrainPressure: 0.005 [ms]
[INFO] MatrixAssemblyPII: 100.733 [ms]
nonePCG:  Solving for p, Initial residual = 0.809676, Final residual = 9.80752e-05, No Iterations 2416
[INFO] SolveP: 108886 [ms]
time step continuity errors : sum local = 4.84397e-09, global = 4.19581e-22, cumulative = 2.5747e-21
[INFO] ContinuityError: 47.689 [ms]
[INFO] CorrectBoundary: 1.625 [ms]
[INFO] PISOStep: 109504 [ms]
[INFO] TimeStep: 222514 [ms]
ExecutionTime = 223.27 s  ClockTime = 224 s

Time = 0.000332

Courant Number mean: 0.0128497 max: 0.426563
[INFO] MatrixAssemblyU: 260.813 [ms]
DILUPBiCGStab:  Solving for Ux, Initial residual = 0.116942, Final residual = 0.00923014, No Iterations 5
DILUPBiCGStab:  Solving for Uy, Initial residual = 0.459876, Final residual = 0.0300233, No Iterations 5
DILUPBiCGStab:  Solving for Uz, Initial residual = 0.995323, Final residual = 0.0718333, No Iterations 5
[INFO] MomentumPredictor: 2956.12 [ms]
[INFO] MatrixAssemblyPI: 342.58 [ms]
[INFO] AdjustPhi: 19.641 [ms]
[INFO] ConstrainPressure: 0.004 [ms]
[INFO] MatrixAssemblyPII: 98.2 [ms]
nonePCG:  Solving for p, Initial residual = 0.878211, Final residual = 9.87436e-05, No Iterations 2380
[INFO] SolveP: 107646 [ms]
time step continuity errors : sum local = 9.38075e-09, global = -6.73039e-22, cumulative = 1.90166e-21
[INFO] ContinuityError: 47.38 [ms]
[INFO] CorrectBoundary: 1.733 [ms]
[INFO] PISOStep: 108269 [ms]
[INFO] MatrixAssemblyPI: 337.708 [ms]
[INFO] AdjustPhi: 20.308 [ms]
[INFO] ConstrainPressure: 0.005 [ms]
[INFO] MatrixAssemblyPII: 101.294 [ms]
nonePCG:  Solving for p, Initial residual = 0.826379, Final residual = 9.90106e-05, No Iterations 2376
[INFO] SolveP: 107868 [ms]
time step continuity errors : sum local = 9.57983e-09, global = 7.88115e-22, cumulative = 2.68978e-21
[INFO] ContinuityError: 47.412 [ms]
[INFO] CorrectBoundary: 1.124 [ms]
[INFO] PISOStep: 108489 [ms]
[INFO] TimeStep: 220020 [ms]
ExecutionTime = 442.16 s  ClockTime = 444 s

Time = 0.000498

Courant Number mean: 0.0198261 max: 0.491805
[INFO] MatrixAssemblyU: 261.137 [ms]
DILUPBiCGStab:  Solving for Ux, Initial residual = 0.0544583, Final residual = 0.00348872, No Iterations 5
DILUPBiCGStab:  Solving for Uy, Initial residual = 0.226377, Final residual = 0.0156762, No Iterations 5
DILUPBiCGStab:  Solving for Uz, Initial residual = 0.85496, Final residual = 0.0552657, No Iterations 5
[INFO] MomentumPredictor: 2946.64 [ms]
[INFO] MatrixAssemblyPI: 344.058 [ms]
[INFO] AdjustPhi: 19.311 [ms]
[INFO] ConstrainPressure: 0.004 [ms]
[INFO] MatrixAssemblyPII: 98.518 [ms]
nonePCG:  Solving for p, Initial residual = 0.913759, Final residual = 9.85169e-05, No Iterations 1154
[INFO] SolveP: 52113.1 [ms]
time step continuity errors : sum local = 1.07584e-08, global = 5.00365e-22, cumulative = 3.19014e-21
[INFO] ContinuityError: 50.102 [ms]
[INFO] CorrectBoundary: 1.238 [ms]
[INFO] PISOStep: 52738.6 [ms]
[INFO] MatrixAssemblyPI: 336.897 [ms]
[INFO] AdjustPhi: 21.403 [ms]
[INFO] ConstrainPressure: 0.005 [ms]
[INFO] MatrixAssemblyPII: 98.816 [ms]
nonePCG:  Solving for p, Initial residual = 0.882699, Final residual = 9.95988e-05, No Iterations 1150
[INFO] SolveP: 52251.4 [ms]
time step continuity errors : sum local = 1.03944e-08, global = 1.51133e-22, cumulative = 3.34128e-21
[INFO] ContinuityError: 47.653 [ms]
[INFO] CorrectBoundary: 1.195 [ms]
[INFO] PISOStep: 52869.3 [ms]
[INFO] TimeStep: 108865 [ms]
ExecutionTime = 550.47 s  ClockTime = 553 s

Time = 0.000664

Courant Number mean: 0.0239197 max: 0.47201
[INFO] MatrixAssemblyU: 262.476 [ms]
DILUPBiCGStab:  Solving for Ux, Initial residual = 0.0384983, Final residual = 0.00279685, No Iterations 5
DILUPBiCGStab:  Solving for Uy, Initial residual = 0.174095, Final residual = 0.0125984, No Iterations 5
DILUPBiCGStab:  Solving for Uz, Initial residual = 0.730708, Final residual = 0.0388502, No Iterations 5
[INFO] MomentumPredictor: 2957.96 [ms]
[INFO] MatrixAssemblyPI: 342.759 [ms]
[INFO] AdjustPhi: 20.413 [ms]
[INFO] ConstrainPressure: 0.004 [ms]
[INFO] MatrixAssemblyPII: 98.113 [ms]
nonePCG:  Solving for p, Initial residual = 0.890301, Final residual = 9.95338e-05, No Iterations 1295
[INFO] SolveP: 58603.7 [ms]
time step continuity errors : sum local = 1.19009e-08, global = 2.94603e-22, cumulative = 3.63588e-21
[INFO] ContinuityError: 46.787 [ms]
[INFO] CorrectBoundary: 1.712 [ms]
[INFO] PISOStep: 59226.3 [ms]
[INFO] MatrixAssemblyPI: 340.634 [ms]
[INFO] AdjustPhi: 22.783 [ms]
[INFO] ConstrainPressure: 0.004 [ms]
[INFO] MatrixAssemblyPII: 98.816 [ms]
nonePCG:  Solving for p, Initial residual = 0.83026, Final residual = 9.97055e-05, No Iterations 1155
[INFO] SolveP: 52484.9 [ms]
time step continuity errors : sum local = 1.15361e-08, global = 1.8404e-21, cumulative = 5.47628e-21
[INFO] ContinuityError: 50.562 [ms]
[INFO] CorrectBoundary: 1.449 [ms]
[INFO] PISOStep: 53111.6 [ms]
[INFO] TimeStep: 115603 [ms]
ExecutionTime = 665.47 s  ClockTime = 669 s

Time = 0.00083

Courant Number mean: 0.0274473 max: 0.504973
[INFO] MatrixAssemblyU: 262.048 [ms]
DILUPBiCGStab:  Solving for Ux, Initial residual = 0.0323997, Final residual = 0.00238113, No Iterations 5
DILUPBiCGStab:  Solving for Uy, Initial residual = 0.129649, Final residual = 0.0105525, No Iterations 5
DILUPBiCGStab:  Solving for Uz, Initial residual = 0.676359, Final residual = 0.0332292, No Iterations 5
[INFO] MomentumPredictor: 2943.89 [ms]
[INFO] MatrixAssemblyPI: 342.531 [ms]
[INFO] AdjustPhi: 19.809 [ms]
[INFO] ConstrainPressure: 0.004 [ms]
[INFO] MatrixAssemblyPII: 98.286 [ms]
nonePCG:  Solving for p, Initial residual = 0.910495, Final residual = 9.99427e-05, No Iterations 2375
[INFO] SolveP: 107178 [ms]
time step continuity errors : sum local = 1.10228e-08, global = 3.38387e-22, cumulative = 5.81467e-21
[INFO] ContinuityError: 47.137 [ms]
[INFO] CorrectBoundary: 1.168 [ms]
[INFO] PISOStep: 107799 [ms]
[INFO] MatrixAssemblyPI: 335.689 [ms]
[INFO] AdjustPhi: 20.902 [ms]
[INFO] ConstrainPressure: 0.004 [ms]
[INFO] MatrixAssemblyPII: 98.911 [ms]
nonePCG:  Solving for p, Initial residual = 0.872711, Final residual = 9.95818e-05, No Iterations 2373
[INFO] SolveP: 107733 [ms]
time step continuity errors : sum local = 1.08419e-08, global = 1.71443e-21, cumulative = 7.5291e-21
[INFO] ContinuityError: 47.598 [ms]
[INFO] CorrectBoundary: 1.081 [ms]
[INFO] PISOStep: 108350 [ms]
[INFO] TimeStep: 219399 [ms]
ExecutionTime = 883.74 s  ClockTime = 888 s

Time = 0.000996

Courant Number mean: 0.0301893 max: 0.478379
[INFO] MatrixAssemblyU: 260.91 [ms]
DILUPBiCGStab:  Solving for Ux, Initial residual = 0.0270645, Final residual = 0.0021372, No Iterations 5
DILUPBiCGStab:  Solving for Uy, Initial residual = 0.111902, Final residual = 0.00833951, No Iterations 5
DILUPBiCGStab:  Solving for Uz, Initial residual = 0.579751, Final residual = 0.0255716, No Iterations 5
[INFO] MomentumPredictor: 2949.57 [ms]
[INFO] MatrixAssemblyPI: 341.833 [ms]
[INFO] AdjustPhi: 20.753 [ms]
[INFO] ConstrainPressure: 0.005 [ms]
[INFO] MatrixAssemblyPII: 98.803 [ms]
nonePCG:  Solving for p, Initial residual = 0.887872, Final residual = 9.99368e-05, No Iterations 2372
[INFO] SolveP: 107331 [ms]
time step continuity errors : sum local = 1.12463e-08, global = -1.09995e-22, cumulative = 7.41911e-21
[INFO] ContinuityError: 48.281 [ms]
[INFO] CorrectBoundary: 1.423 [ms]
[INFO] PISOStep: 107953 [ms]
[INFO] MatrixAssemblyPI: 339.615 [ms]
[INFO] AdjustPhi: 20.657 [ms]
[INFO] ConstrainPressure: 0.004 [ms]
[INFO] MatrixAssemblyPII: 98.617 [ms]
nonePCG:  Solving for p, Initial residual = 0.824763, Final residual = 9.98375e-05, No Iterations 2369
[INFO] SolveP: 107439 [ms]
time step continuity errors : sum local = 1.14063e-08, global = 9.87627e-22, cumulative = 8.40674e-21
[INFO] ContinuityError: 47.793 [ms]
[INFO] CorrectBoundary: 1.017 [ms]
[INFO] PISOStep: 108061 [ms]
[INFO] TimeStep: 219271 [ms]
ExecutionTime = 1101.87 s  ClockTime = 1108 s

Time = 0.001162

Courant Number mean: 0.0326683 max: 0.511865
[INFO] MatrixAssemblyU: 261.556 [ms]
DILUPBiCGStab:  Solving for Ux, Initial residual = 0.0245518, Final residual = 0.00196824, No Iterations 5
DILUPBiCGStab:  Solving for Uy, Initial residual = 0.0982971, Final residual = 0.00769247, No Iterations 5
DILUPBiCGStab:  Solving for Uz, Initial residual = 0.553273, Final residual = 0.0228137, No Iterations 5
[INFO] MomentumPredictor: 2950.32 [ms]
[INFO] MatrixAssemblyPI: 343.816 [ms]
[INFO] AdjustPhi: 19.346 [ms]
[INFO] ConstrainPressure: 0.004 [ms]
[INFO] MatrixAssemblyPII: 98.283 [ms]
nonePCG:  Solving for p, Initial residual = 0.905824, Final residual = 9.93408e-05, No Iterations 2290
[INFO] SolveP: 103623 [ms]
time step continuity errors : sum local = 1.09008e-08, global = 6.03881e-22, cumulative = 9.01062e-21
[INFO] ContinuityError: 50.637 [ms]
[INFO] CorrectBoundary: 1.026 [ms]
[INFO] PISOStep: 104249 [ms]
[INFO] MatrixAssemblyPI: 338.184 [ms]
[INFO] AdjustPhi: 20.636 [ms]
[INFO] ConstrainPressure: 0.005 [ms]
[INFO] MatrixAssemblyPII: 98.927 [ms]
nonePCG:  Solving for p, Initial residual = 0.860988, Final residual = 9.88216e-05, No Iterations 2291
[INFO] SolveP: 103892 [ms]
time step continuity errors : sum local = 1.07253e-08, global = 1.11902e-21, cumulative = 1.01296e-20
[INFO] ContinuityError: 50.163 [ms]
[INFO] CorrectBoundary: 2.186 [ms]
[INFO] PISOStep: 104514 [ms]
[INFO] TimeStep: 212019 [ms]
ExecutionTime = 1312.8 s  ClockTime = 1320 s

Time = 0.001328

Courant Number mean: 0.034753 max: 0.481308
[INFO] MatrixAssemblyU: 263.205 [ms]
DILUPBiCGStab:  Solving for Ux, Initial residual = 0.0221229, Final residual = 0.00183354, No Iterations 5
DILUPBiCGStab:  Solving for Uy, Initial residual = 0.0870764, Final residual = 0.00645291, No Iterations 5
DILUPBiCGStab:  Solving for Uz, Initial residual = 0.510117, Final residual = 0.0204683, No Iterations 5
[INFO] MomentumPredictor: 2950.31 [ms]
[INFO] MatrixAssemblyPI: 342.149 [ms]
[INFO] AdjustPhi: 19.154 [ms]
[INFO] ConstrainPressure: 0.004 [ms]
[INFO] MatrixAssemblyPII: 98.071 [ms]
nonePCG:  Solving for p, Initial residual = 0.883753, Final residual = 9.95001e-05, No Iterations 2310
[INFO] SolveP: 104536 [ms]
time step continuity errors : sum local = 1.10888e-08, global = 1.34167e-22, cumulative = 1.02638e-20
[INFO] ContinuityError: 48.318 [ms]
[INFO] CorrectBoundary: 2.599 [ms]
[INFO] PISOStep: 105160 [ms]
[INFO] MatrixAssemblyPI: 338.282 [ms]
[INFO] AdjustPhi: 20.56 [ms]
[INFO] ConstrainPressure: 0.004 [ms]
[INFO] MatrixAssemblyPII: 98.13 [ms]
nonePCG:  Solving for p, Initial residual = 0.817909, Final residual = 9.8898e-05, No Iterations 2301
[INFO] SolveP: 104426 [ms]
time step continuity errors : sum local = 1.11738e-08, global = 3.60714e-22, cumulative = 1.06245e-20
[INFO] ContinuityError: 47.919 [ms]
[INFO] CorrectBoundary: 0.898 [ms]
[INFO] PISOStep: 105047 [ms]
[INFO] TimeStep: 213464 [ms]
ExecutionTime = 1525.16 s  ClockTime = 1533 s

Time = 0.001494

Courant Number mean: 0.0367021 max: 0.518002
[INFO] MatrixAssemblyU: 261.329 [ms]
DILUPBiCGStab:  Solving for Ux, Initial residual = 0.0205477, Final residual = 0.00171318, No Iterations 5
DILUPBiCGStab:  Solving for Uy, Initial residual = 0.0819388, Final residual = 0.00611195, No Iterations 5
DILUPBiCGStab:  Solving for Uz, Initial residual = 0.506094, Final residual = 0.0192312, No Iterations 5
[INFO] MomentumPredictor: 2963.24 [ms]
[INFO] MatrixAssemblyPI: 343.769 [ms]
[INFO] AdjustPhi: 21.679 [ms]
[INFO] ConstrainPressure: 0.005 [ms]
[INFO] MatrixAssemblyPII: 99.142 [ms]
nonePCG:  Solving for p, Initial residual = 0.901649, Final residual = 9.9114e-05, No Iterations 2091
[INFO] SolveP: 94587 [ms]
time step continuity errors : sum local = 1.08178e-08, global = 5.81757e-22, cumulative = 1.12063e-20
[INFO] ContinuityError: 47.608 [ms]
[INFO] CorrectBoundary: 1.056 [ms]
[INFO] PISOStep: 95212.2 [ms]
[INFO] MatrixAssemblyPI: 338.801 [ms]
[INFO] AdjustPhi: 18.589 [ms]
[INFO] ConstrainPressure: 0.005 [ms]
[INFO] MatrixAssemblyPII: 99.406 [ms]
nonePCG:  Solving for p, Initial residual = 0.85176, Final residual = 9.76707e-05, No Iterations 2081
[INFO] SolveP: 94449.9 [ms]
time step continuity errors : sum local = 1.05558e-08, global = 7.67711e-22, cumulative = 1.1974e-20
[INFO] ContinuityError: 48.655 [ms]
[INFO] CorrectBoundary: 0.937 [ms]
[INFO] PISOStep: 95068.9 [ms]
[INFO] TimeStep: 193550 [ms]
ExecutionTime = 1717.7 s  ClockTime = 1727 s

Time = 0.00166

Courant Number mean: 0.0383957 max: 0.483672
[INFO] MatrixAssemblyU: 261.886 [ms]
DILUPBiCGStab:  Solving for Ux, Initial residual = 0.0193393, Final residual = 0.00162672, No Iterations 5
DILUPBiCGStab:  Solving for Uy, Initial residual = 0.0736171, Final residual = 0.00529595, No Iterations 5
DILUPBiCGStab:  Solving for Uz, Initial residual = 0.485034, Final residual = 0.0184753, No Iterations 5
[INFO] MomentumPredictor: 2950.84 [ms]
[INFO] MatrixAssemblyPI: 343.111 [ms]
[INFO] AdjustPhi: 19.876 [ms]
[INFO] ConstrainPressure: 0.004 [ms]
[INFO] MatrixAssemblyPII: 98.15 [ms]
nonePCG:  Solving for p, Initial residual = 0.882647, Final residual = 9.94273e-05, No Iterations 2298
[INFO] SolveP: 104065 [ms]
time step continuity errors : sum local = 1.12002e-08, global = 1.63823e-21, cumulative = 1.36122e-20
[INFO] ContinuityError: 47.234 [ms]
[INFO] CorrectBoundary: 0.995 [ms]
[INFO] PISOStep: 104687 [ms]
[INFO] MatrixAssemblyPI: 338.309 [ms]
[INFO] AdjustPhi: 20.163 [ms]
[INFO] ConstrainPressure: 0.004 [ms]
[INFO] MatrixAssemblyPII: 98.247 [ms]
nonePCG:  Solving for p, Initial residual = 0.813519, Final residual = 9.74232e-05, No Iterations 2296
[INFO] SolveP: 104192 [ms]
time step continuity errors : sum local = 1.11122e-08, global = 7.5259e-22, cumulative = 1.43648e-20
[INFO] ContinuityError: 47.212 [ms]
[INFO] CorrectBoundary: 1.029 [ms]
[INFO] PISOStep: 104810 [ms]
[INFO] TimeStep: 212755 [ms]
ExecutionTime = 1929.37 s  ClockTime = 1939 s

Time = 0.001826

Courant Number mean: 0.0400178 max: 0.524624
[INFO] MatrixAssemblyU: 260.47 [ms]
DILUPBiCGStab:  Solving for Ux, Initial residual = 0.0181679, Final residual = 0.00152144, No Iterations 5
DILUPBiCGStab:  Solving for Uy, Initial residual = 0.0719962, Final residual = 0.0051159, No Iterations 5
DILUPBiCGStab:  Solving for Uz, Initial residual = 0.486109, Final residual = 0.0172525, No Iterations 5
[INFO] MomentumPredictor: 2951.38 [ms]
[INFO] MatrixAssemblyPI: 342.527 [ms]
[INFO] AdjustPhi: 20.64 [ms]
[INFO] ConstrainPressure: 0.003 [ms]
[INFO] MatrixAssemblyPII: 97.833 [ms]
nonePCG:  Solving for p, Initial residual = 0.901648, Final residual = 9.8301e-05, No Iterations 2295
[INFO] SolveP: 103849 [ms]
time step continuity errors : sum local = 1.1012e-08, global = 2.56636e-21, cumulative = 1.69312e-20
[INFO] ContinuityError: 46.95 [ms]
[INFO] CorrectBoundary: 4.044 [ms]
[INFO] PISOStep: 104474 [ms]
[INFO] MatrixAssemblyPI: 335.941 [ms]
[INFO] AdjustPhi: 21.214 [ms]
[INFO] ConstrainPressure: 0.006 [ms]
[INFO] MatrixAssemblyPII: 99.072 [ms]
nonePCG:  Solving for p, Initial residual = 0.847158, Final residual = 9.94775e-05, No Iterations 2291
[INFO] SolveP: 103875 [ms]
time step continuity errors : sum local = 1.10502e-08, global = 1.00591e-21, cumulative = 1.79371e-20
[INFO] ContinuityError: 47.252 [ms]
[INFO] CorrectBoundary: 1.038 [ms]
[INFO] PISOStep: 104492 [ms]
[INFO] TimeStep: 212225 [ms]
ExecutionTime = 2140.48 s  ClockTime = 2152 s

Time = 0.001992

Courant Number mean: 0.0414491 max: 0.486754
[INFO] MatrixAssemblyU: 263.241 [ms]
DILUPBiCGStab:  Solving for Ux, Initial residual = 0.0175751, Final residual = 0.0014694, No Iterations 5
DILUPBiCGStab:  Solving for Uy, Initial residual = 0.065524, Final residual = 0.00449848, No Iterations 5
DILUPBiCGStab:  Solving for Uz, Initial residual = 0.471072, Final residual = 0.0165807, No Iterations 5
[INFO] MomentumPredictor: 2945.29 [ms]
[INFO] MatrixAssemblyPI: 343.699 [ms]
[INFO] AdjustPhi: 19.003 [ms]
[INFO] ConstrainPressure: 0.004 [ms]
[INFO] MatrixAssemblyPII: 97.77 [ms]
nonePCG:  Solving for p, Initial residual = 0.884164, Final residual = 9.89604e-05, No Iterations 2204
[INFO] SolveP: 99381.2 [ms]
time step continuity errors : sum local = 1.1523e-08, global = 7.6061e-22, cumulative = 1.86977e-20
[INFO] ContinuityError: 47.841 [ms]
[INFO] CorrectBoundary: 1.427 [ms]
[INFO] PISOStep: 100003 [ms]
[INFO] MatrixAssemblyPI: 338.702 [ms]
[INFO] AdjustPhi: 19.086 [ms]
[INFO] ConstrainPressure: 0.005 [ms]
[INFO] MatrixAssemblyPII: 99.522 [ms]
nonePCG:  Solving for p, Initial residual = 0.813621, Final residual = 9.97689e-05, No Iterations 2216
[INFO] SolveP: 100441 [ms]
time step continuity errors : sum local = 1.17468e-08, global = 5.98914e-22, cumulative = 1.92966e-20
[INFO] ContinuityError: 47.41 [ms]
[INFO] CorrectBoundary: 0.995 [ms]
[INFO] PISOStep: 101059 [ms]
[INFO] TimeStep: 204316 [ms]
ExecutionTime = 2343.73 s  ClockTime = 2356 s

Time = 0.002158

Courant Number mean: 0.0428475 max: 0.532249
[INFO] MatrixAssemblyU: 261.279 [ms]
DILUPBiCGStab:  Solving for Ux, Initial residual = 0.0166424, Final residual = 0.00136959, No Iterations 5
DILUPBiCGStab:  Solving for Uy, Initial residual = 0.0655704, Final residual = 0.00442788, No Iterations 5
DILUPBiCGStab:  Solving for Uz, Initial residual = 0.479109, Final residual = 0.0163706, No Iterations 5
[INFO] MomentumPredictor: 2954.69 [ms]
[INFO] MatrixAssemblyPI: 343.212 [ms]
[INFO] AdjustPhi: 20.509 [ms]
[INFO] ConstrainPressure: 0.005 [ms]
[INFO] MatrixAssemblyPII: 98.119 [ms]
nonePCG:  Solving for p, Initial residual = 0.902378, Final residual = 9.71609e-05, No Iterations 2293
[INFO] SolveP: 103769 [ms]
time step continuity errors : sum local = 1.13129e-08, global = 2.29195e-22, cumulative = 1.95258e-20
[INFO] ContinuityError: 47.511 [ms]
[INFO] CorrectBoundary: 0.913 [ms]
[INFO] PISOStep: 104391 [ms]
[INFO] MatrixAssemblyPI: 338.751 [ms]
[INFO] AdjustPhi: 20.223 [ms]
[INFO] ConstrainPressure: 0.004 [ms]
[INFO] MatrixAssemblyPII: 99.199 [ms]
nonePCG:  Solving for p, Initial residual = 0.84428, Final residual = 9.77487e-05, No Iterations 2291
[INFO] SolveP: 103902 [ms]
time step continuity errors : sum local = 1.13018e-08, global = 1.21783e-21, cumulative = 2.07436e-20
[INFO] ContinuityError: 50.182 [ms]
[INFO] CorrectBoundary: 0.873 [ms]
[INFO] PISOStep: 104527 [ms]
[INFO] TimeStep: 212179 [ms]
ExecutionTime = 2554.8 s  ClockTime = 2568 s

Time = 0.002324

Courant Number mean: 0.0440892 max: 0.48979
[INFO] MatrixAssemblyU: 261.823 [ms]
DILUPBiCGStab:  Solving for Ux, Initial residual = 0.016407, Final residual = 0.00134431, No Iterations 5
DILUPBiCGStab:  Solving for Uy, Initial residual = 0.0604387, Final residual = 0.00392988, No Iterations 5
DILUPBiCGStab:  Solving for Uz, Initial residual = 0.469343, Final residual = 0.0157707, No Iterations 5
[INFO] MomentumPredictor: 2949.09 [ms]
[INFO] MatrixAssemblyPI: 342.205 [ms]
[INFO] AdjustPhi: 20.909 [ms]
[INFO] ConstrainPressure: 0.004 [ms]
[INFO] MatrixAssemblyPII: 98.146 [ms]
nonePCG:  Solving for p, Initial residual = 0.886501, Final residual = 9.9739e-05, No Iterations 2294
[INFO] SolveP: 104479 [ms]
time step continuity errors : sum local = 1.20893e-08, global = -9.18746e-22, cumulative = 1.98249e-20
[INFO] ContinuityError: 47.366 [ms]
[INFO] CorrectBoundary: 1.109 [ms]
[INFO] PISOStep: 105100 [ms]
[INFO] MatrixAssemblyPI: 336.017 [ms]
[INFO] AdjustPhi: 21.167 [ms]
[INFO] ConstrainPressure: 0.003 [ms]
[INFO] MatrixAssemblyPII: 99.414 [ms]
nonePCG:  Solving for p, Initial residual = 0.814789, Final residual = 9.7198e-05, No Iterations 2292
[INFO] SolveP: 104130 [ms]
time step continuity errors : sum local = 1.18964e-08, global = -9.73765e-22, cumulative = 1.88511e-20
[INFO] ContinuityError: 47.583 [ms]
[INFO] CorrectBoundary: 0.934 [ms]
[INFO] PISOStep: 104750 [ms]
[INFO] TimeStep: 213105 [ms]
ExecutionTime = 2766.75 s  ClockTime = 2781 s

Time = 0.00249

Courant Number mean: 0.0453248 max: 0.540991
[INFO] MatrixAssemblyU: 261.704 [ms]
DILUPBiCGStab:  Solving for Ux, Initial residual = 0.0156592, Final residual = 0.00124705, No Iterations 5
DILUPBiCGStab:  Solving for Uy, Initial residual = 0.0613192, Final residual = 0.0039275, No Iterations 5
DILUPBiCGStab:  Solving for Uz, Initial residual = 0.480123, Final residual = 0.015756, No Iterations 5
[INFO] MomentumPredictor: 2954.87 [ms]
[INFO] MatrixAssemblyPI: 341.217 [ms]
[INFO] AdjustPhi: 22.453 [ms]
[INFO] ConstrainPressure: 0.004 [ms]
[INFO] MatrixAssemblyPII: 98.422 [ms]
nonePCG:  Solving for p, Initial residual = 0.903213, Final residual = 9.60224e-05, No Iterations 2292
[INFO] SolveP: 103781 [ms]
time step continuity errors : sum local = 1.16836e-08, global = 7.75045e-22, cumulative = 1.96262e-20
[INFO] ContinuityError: 48.423 [ms]
[INFO] CorrectBoundary: 1.028 [ms]
[INFO] PISOStep: 104406 [ms]
[INFO] MatrixAssemblyPI: 335.084 [ms]
[INFO] AdjustPhi: 23.077 [ms]
[INFO] ConstrainPressure: 0.004 [ms]
[INFO] MatrixAssemblyPII: 98.975 [ms]
nonePCG:  Solving for p, Initial residual = 0.842128, Final residual = 9.88017e-05, No Iterations 2289
[INFO] SolveP: 104432 [ms]
time step continuity errors : sum local = 1.19539e-08, global = 5.00403e-22, cumulative = 2.01266e-20
[INFO] ContinuityError: 47.409 [ms]
[INFO] CorrectBoundary: 1.216 [ms]
[INFO] PISOStep: 105051 [ms]
[INFO] TimeStep: 212717 [ms]
ExecutionTime = 2978.31 s  ClockTime = 2994 s

Time = 0.002656

Courant Number mean: 0.0464224 max: 0.492863
[INFO] MatrixAssemblyU: 261.367 [ms]
DILUPBiCGStab:  Solving for Ux, Initial residual = 0.0156463, Final residual = 0.00124142, No Iterations 5
DILUPBiCGStab:  Solving for Uy, Initial residual = 0.0572895, Final residual = 0.00351466, No Iterations 5
DILUPBiCGStab:  Solving for Uz, Initial residual = 0.474109, Final residual = 0.0154066, No Iterations 5
[INFO] MomentumPredictor: 2960.59 [ms]
[INFO] MatrixAssemblyPI: 342.373 [ms]
[INFO] AdjustPhi: 20.463 [ms]
[INFO] ConstrainPressure: 0.004 [ms]
[INFO] MatrixAssemblyPII: 98.138 [ms]
nonePCG:  Solving for p, Initial residual = 0.889509, Final residual = 9.76852e-05, No Iterations 2295
[INFO] SolveP: 103719 [ms]
time step continuity errors : sum local = 1.23644e-08, global = 2.3156e-21, cumulative = 2.24422e-20
[INFO] ContinuityError: 47.199 [ms]
[INFO] CorrectBoundary: 1.125 [ms]
[INFO] PISOStep: 104341 [ms]
[INFO] MatrixAssemblyPI: 335.355 [ms]
[INFO] AdjustPhi: 23.145 [ms]
[INFO] ConstrainPressure: 0.004 [ms]
[INFO] MatrixAssemblyPII: 98.974 [ms]
nonePCG:  Solving for p, Initial residual = 0.816841, Final residual = 9.93577e-05, No Iterations 2291
[INFO] SolveP: 103983 [ms]
time step continuity errors : sum local = 1.26827e-08, global = 1.3471e-21, cumulative = 2.37893e-20
[INFO] ContinuityError: 47.025 [ms]
[INFO] CorrectBoundary: 1.032 [ms]
[INFO] PISOStep: 104601 [ms]
[INFO] TimeStep: 212209 [ms]
ExecutionTime = 3189.37 s  ClockTime = 3206 s

Time = 0.002822

Courant Number mean: 0.0475332 max: 0.551146
[INFO] MatrixAssemblyU: 261.491 [ms]
DILUPBiCGStab:  Solving for Ux, Initial residual = 0.0150695, Final residual = 0.00114941, No Iterations 5
DILUPBiCGStab:  Solving for Uy, Initial residual = 0.0586249, Final residual = 0.00355394, No Iterations 5
DILUPBiCGStab:  Solving for Uz, Initial residual = 0.485632, Final residual = 0.0154586, No Iterations 5
[INFO] MomentumPredictor: 2953.49 [ms]
[INFO] MatrixAssemblyPI: 342.017 [ms]
[INFO] AdjustPhi: 21.436 [ms]
[INFO] ConstrainPressure: 0.004 [ms]
[INFO] MatrixAssemblyPII: 98.951 [ms]
nonePCG:  Solving for p, Initial residual = 0.904764, Final residual = 9.98774e-05, No Iterations 2290
[INFO] SolveP: 103372 [ms]
time step continuity errors : sum local = 1.27467e-08, global = 1.18611e-21, cumulative = 2.49754e-20
[INFO] ContinuityError: 47.048 [ms]
[INFO] CorrectBoundary: 1.292 [ms]
[INFO] PISOStep: 103995 [ms]
[INFO] MatrixAssemblyPI: 335.577 [ms]
[INFO] AdjustPhi: 21.502 [ms]
[INFO] ConstrainPressure: 0.004 [ms]
[INFO] MatrixAssemblyPII: 99.791 [ms]
nonePCG:  Solving for p, Initial residual = 0.840598, Final residual = 9.75943e-05, No Iterations 2289
[INFO] SolveP: 103987 [ms]
time step continuity errors : sum local = 1.24003e-08, global = 8.73227e-22, cumulative = 2.58486e-20
[INFO] ContinuityError: 47.323 [ms]
[INFO] CorrectBoundary: 1.192 [ms]
[INFO] PISOStep: 104605 [ms]
[INFO] TimeStep: 211859 [ms]
ExecutionTime = 3400.07 s  ClockTime = 3418 s

Time = 0.002988

Courant Number mean: 0.0485163 max: 0.496214
[INFO] MatrixAssemblyU: 261.83 [ms]
DILUPBiCGStab:  Solving for Ux, Initial residual = 0.0151953, Final residual = 0.00115571, No Iterations 5
DILUPBiCGStab:  Solving for Uy, Initial residual = 0.0555403, Final residual = 0.00320621, No Iterations 5
DILUPBiCGStab:  Solving for Uz, Initial residual = 0.481983, Final residual = 0.0152246, No Iterations 5
[INFO] MomentumPredictor: 2958.11 [ms]
[INFO] MatrixAssemblyPI: 342.062 [ms]
[INFO] AdjustPhi: 20.959 [ms]
[INFO] ConstrainPressure: 0.004 [ms]
[INFO] MatrixAssemblyPII: 98.172 [ms]
nonePCG:  Solving for p, Initial residual = 0.894236, Final residual = 9.90605e-05, No Iterations 2295
[INFO] SolveP: 105166 [ms]
time step continuity errors : sum local = 1.31482e-08, global = 8.10574e-22, cumulative = 2.66592e-20
[INFO] ContinuityError: 46.799 [ms]
[INFO] CorrectBoundary: 1.061 [ms]
[INFO] PISOStep: 105788 [ms]
[INFO] MatrixAssemblyPI: 337.103 [ms]
[INFO] AdjustPhi: 21.435 [ms]
[INFO] ConstrainPressure: 0.004 [ms]
[INFO] MatrixAssemblyPII: 99.149 [ms]
nonePCG:  Solving for p, Initial residual = 0.82013, Final residual = 9.74859e-05, No Iterations 2292
[INFO] SolveP: 104169 [ms]
time step continuity errors : sum local = 1.30347e-08, global = 4.36849e-22, cumulative = 2.7096e-20
[INFO] ContinuityError: 47.236 [ms]
[INFO] CorrectBoundary: 0.952 [ms]
[INFO] PISOStep: 104789 [ms]
[INFO] TimeStep: 213843 [ms]
ExecutionTime = 3612.75 s  ClockTime = 3632 s

Time = 0.003154

Courant Number mean: 0.0495292 max: 0.562887
[INFO] MatrixAssemblyU: 261.543 [ms]
DILUPBiCGStab:  Solving for Ux, Initial residual = 0.0147924, Final residual = 0.00107265, No Iterations 5
DILUPBiCGStab:  Solving for Uy, Initial residual = 0.0571508, Final residual = 0.00327106, No Iterations 5
DILUPBiCGStab:  Solving for Uz, Initial residual = 0.493722, Final residual = 0.0153135, No Iterations 5
[INFO] MomentumPredictor: 2954.4 [ms]
[INFO] MatrixAssemblyPI: 342.925 [ms]
[INFO] AdjustPhi: 20.196 [ms]
[INFO] ConstrainPressure: 0.004 [ms]
[INFO] MatrixAssemblyPII: 98.345 [ms]
nonePCG:  Solving for p, Initial residual = 0.907502, Final residual = 9.7653e-05, No Iterations 2295
[INFO] SolveP: 103573 [ms]
time step continuity errors : sum local = 1.31402e-08, global = 1.53541e-22, cumulative = 2.72496e-20
[INFO] ContinuityError: 46.769 [ms]
[INFO] CorrectBoundary: 1.405 [ms]
[INFO] PISOStep: 104195 [ms]
[INFO] MatrixAssemblyPI: 334.64 [ms]
[INFO] AdjustPhi: 23.411 [ms]
[INFO] ConstrainPressure: 0.004 [ms]
[INFO] MatrixAssemblyPII: 99.412 [ms]
nonePCG:  Solving for p, Initial residual = 0.840512, Final residual = 9.82936e-05, No Iterations 2292
[INFO] SolveP: 104229 [ms]
time step continuity errors : sum local = 1.31824e-08, global = 1.14795e-21, cumulative = 2.83975e-20
[INFO] ContinuityError: 47.504 [ms]
[INFO] CorrectBoundary: 0.952 [ms]
[INFO] PISOStep: 104848 [ms]
[INFO] TimeStep: 212304 [ms]
ExecutionTime = 3823.89 s  ClockTime = 3844 s

Time = 0.00332

Courant Number mean: 0.0504191 max: 0.499826
[INFO] MatrixAssemblyU: 261.946 [ms]
DILUPBiCGStab:  Solving for Ux, Initial residual = 0.0150213, Final residual = 0.00108489, No Iterations 5
DILUPBiCGStab:  Solving for Uy, Initial residual = 0.0548406, Final residual = 0.00297807, No Iterations 5
DILUPBiCGStab:  Solving for Uz, Initial residual = 0.491914, Final residual = 0.0151562, No Iterations 5
[INFO] MomentumPredictor: 2953.34 [ms]
[INFO] MatrixAssemblyPI: 342.047 [ms]
[INFO] AdjustPhi: 21.644 [ms]
[INFO] ConstrainPressure: 0.004 [ms]
[INFO] MatrixAssemblyPII: 98.052 [ms]
nonePCG:  Solving for p, Initial residual = 0.899815, Final residual = 9.76217e-05, No Iterations 2296
[INFO] SolveP: 103780 [ms]
time step continuity errors : sum local = 1.36516e-08, global = -5.50153e-22, cumulative = 2.78474e-20
[INFO] ContinuityError: 47.347 [ms]
[INFO] CorrectBoundary: 0.99 [ms]
[INFO] PISOStep: 104404 [ms]
[INFO] MatrixAssemblyPI: 334.594 [ms]
[INFO] AdjustPhi: 26.692 [ms]
[INFO] ConstrainPressure: 0.004 [ms]
[INFO] MatrixAssemblyPII: 98.965 [ms]
nonePCG:  Solving for p, Initial residual = 0.824778, Final residual = 9.98899e-05, No Iterations 2292
[INFO] SolveP: 104477 [ms]
time step continuity errors : sum local = 1.4059e-08, global = 1.20118e-21, cumulative = 2.90485e-20
[INFO] ContinuityError: 47.759 [ms]
[INFO] CorrectBoundary: 0.88 [ms]
[INFO] PISOStep: 105099 [ms]
[INFO] TimeStep: 212762 [ms]
ExecutionTime = 4035.49 s  ClockTime = 4057 s

End

Finalising parallel run
