/*---------------------------------------------------------------------------*\
| =========                 |                                                 |
| \\      /  F ield         | OpenFOAM: The Open Source CFD Toolbox           |
|  \\    /   O peration     | Version:  2306                                  |
|   \\  /    A nd           | Website:  www.openfoam.com                      |
|    \\/     M anipulation  |                                                 |
\*---------------------------------------------------------------------------*/
Build  : c423ebec-20231012 OPENFOAM=2306 version=v2306
Arch   : "LSB;label=32;scalar=64"
Exec   : icoFoam -parallel -case /hkfs/work/workspace/scratch/eq4036-l3d_multi/workspace/bd5c08baa394bdac546bfd20a78f5f96/case
Date   : Feb 05 2024
Time   : 08:53:44
Host   : hkn1129.localdomain
PID    : 1197306
I/O    : uncollated
Case   : /hkfs/work/workspace/scratch/eq4036-l3d_multi/workspace/bd5c08baa394bdac546bfd20a78f5f96/case
nProcs : 760
Hosts  :
(
    (hkn1129.localdomain 76)
    (hkn1130.localdomain 76)
    (hkn1131.localdomain 76)
    (hkn1132.localdomain 76)
    (hkn1133.localdomain 76)
    (hkn1134.localdomain 76)
    (hkn1137.localdomain 76)
    (hkn1138.localdomain 76)
    (hkn1139.localdomain 76)
    (hkn1140.localdomain 76)
)
Pstream initialized with:
    floatTransfer      : false
    nProcsSimpleSum    : 0
    nonBlockingExchange: 0 (tuning: 0)
    exchange algorithm : -1
    commsType          : nonBlocking
    polling iterations : 0
trapFpe: Floating point exception trapping enabled (FOAM_SIGFPE).
fileModificationChecking : Monitoring run-time modified files using timeStampMaster (fileModificationSkew 5, maxFileModificationPolls 20)
allowSystemOperations : Allowing user-supplied system call operations

// * * * * * * * * * * * * * * * * * * * * * * * * * * * * * * * * * * * * * //
Create time

--> FOAM Warning : 
    From void* Foam::dlLibraryTable::openLibrary(const Foam::fileName&, bool)
    in file db/dynamicLibrary/dlLibraryTable/dlLibraryTable.C at line 188
    Could not load "libpetscFoam.so"
libpetscFoam.so: cannot open shared object file: No such file or directory
Create mesh for time = 0


PISO: Operating solver in PISO mode

Reading transportProperties

Reading field p

Reading field U

Reading/calculating face flux field phi


Starting time loop

Time = 0.0001

Courant Number mean: 6.42004e-18 max: 3.88578e-14
[INFO] MatrixAssemblyU: 48.876 [ms]
DILUPBiCGStab:  Solving for Ux, Initial residual = 1, Final residual = 0.027533, No Iterations 5
DILUPBiCGStab:  Solving for Uy:  solution singularity
DILUPBiCGStab:  Solving for Uz:  solution singularity
[INFO] MomentumPredictor: 202.506 [ms]
[INFO] MatrixAssemblyPI: 52.359 [ms]
[INFO] AdjustPhi: 15.552 [ms]
[INFO] ConstrainPressure: 0.006 [ms]
[INFO] MatrixAssemblyPII: 11.633 [ms]
nonePCG:  Solving for p, Initial residual = 1, Final residual = 9.99794e-05, No Iterations 3252
[INFO] SolveP: 12006.2 [ms]
time step continuity errors : sum local = 1.78447e-09, global = 9.01209e-22, cumulative = 9.01209e-22
[INFO] ContinuityError: 18.834 [ms]
[INFO] CorrectBoundary: 1.314 [ms]
[INFO] PISOStep: 12131.4 [ms]
[INFO] MatrixAssemblyPI: 50.311 [ms]
[INFO] AdjustPhi: 7.733 [ms]
[INFO] ConstrainPressure: 0.003 [ms]
[INFO] MatrixAssemblyPII: 13.079 [ms]
nonePCG:  Solving for p, Initial residual = 0.804096, Final residual = 9.96161e-05, No Iterations 3238
[INFO] SolveP: 12145.7 [ms]
time step continuity errors : sum local = 2.18467e-09, global = 1.19952e-22, cumulative = 1.02116e-21
[INFO] ContinuityError: 4.91 [ms]
[INFO] CorrectBoundary: 1.154 [ms]
[INFO] PISOStep: 12249.4 [ms]
[INFO] TimeStep: 24643 [ms]
ExecutionTime = 26.15 s  ClockTime = 27 s

Time = 0.0002

Courant Number mean: 0.00770514 max: 0.345067
[INFO] MatrixAssemblyU: 44.981 [ms]
DILUPBiCGStab:  Solving for Ux, Initial residual = 0.113862, Final residual = 0.0167321, No Iterations 5
DILUPBiCGStab:  Solving for Uy, Initial residual = 0.466541, Final residual = 0.0610117, No Iterations 5
DILUPBiCGStab:  Solving for Uz, Initial residual = 0.983164, Final residual = 0.143192, No Iterations 5
[INFO] MomentumPredictor: 366.428 [ms]
[INFO] MatrixAssemblyPI: 51.874 [ms]
[INFO] AdjustPhi: 6.543 [ms]
[INFO] ConstrainPressure: 0.003 [ms]
[INFO] MatrixAssemblyPII: 11.724 [ms]
nonePCG:  Solving for p, Initial residual = 0.887353, Final residual = 9.85826e-05, No Iterations 3184
[INFO] SolveP: 11752.2 [ms]
time step continuity errors : sum local = 4.56362e-09, global = -9.05226e-23, cumulative = 9.30637e-22
[INFO] ContinuityError: 4.645 [ms]
[INFO] CorrectBoundary: 1.153 [ms]
[INFO] PISOStep: 11852.1 [ms]
[INFO] MatrixAssemblyPI: 51.129 [ms]
[INFO] AdjustPhi: 6.631 [ms]
[INFO] ConstrainPressure: 0.004 [ms]
[INFO] MatrixAssemblyPII: 13.165 [ms]
nonePCG:  Solving for p, Initial residual = 0.83491, Final residual = 9.91911e-05, No Iterations 3180
[INFO] SolveP: 11671.4 [ms]
time step continuity errors : sum local = 4.67507e-09, global = 1.19805e-22, cumulative = 1.05044e-21
[INFO] ContinuityError: 5.025 [ms]
[INFO] CorrectBoundary: 0.906 [ms]
[INFO] PISOStep: 11773 [ms]
[INFO] TimeStep: 24045.6 [ms]
ExecutionTime = 50.03 s  ClockTime = 51 s

Time = 0.0003

Courant Number mean: 0.0120534 max: 0.396006
[INFO] MatrixAssemblyU: 44.903 [ms]
DILUPBiCGStab:  Solving for Ux, Initial residual = 0.0524783, Final residual = 0.00653663, No Iterations 5
DILUPBiCGStab:  Solving for Uy, Initial residual = 0.220787, Final residual = 0.0331873, No Iterations 5
DILUPBiCGStab:  Solving for Uz, Initial residual = 0.849136, Final residual = 0.105206, No Iterations 5
[INFO] MomentumPredictor: 331.986 [ms]
[INFO] MatrixAssemblyPI: 51.83 [ms]
[INFO] AdjustPhi: 6.261 [ms]
[INFO] ConstrainPressure: 0.002 [ms]
[INFO] MatrixAssemblyPII: 11.734 [ms]
nonePCG:  Solving for p, Initial residual = 0.920859, Final residual = 9.89297e-05, No Iterations 1531
[INFO] SolveP: 5761.57 [ms]
time step continuity errors : sum local = 5.25831e-09, global = 5.78406e-22, cumulative = 1.62885e-21
[INFO] ContinuityError: 5.348 [ms]
[INFO] CorrectBoundary: 1.096 [ms]
[INFO] PISOStep: 5859.26 [ms]
[INFO] MatrixAssemblyPI: 49.175 [ms]
[INFO] AdjustPhi: 6.315 [ms]
[INFO] ConstrainPressure: 0.005 [ms]
[INFO] MatrixAssemblyPII: 11.499 [ms]
nonePCG:  Solving for p, Initial residual = 0.884737, Final residual = 9.96886e-05, No Iterations 1514
[INFO] SolveP: 5427.41 [ms]
time step continuity errors : sum local = 5.09791e-09, global = 4.82999e-22, cumulative = 2.11185e-21
[INFO] ContinuityError: 5.523 [ms]
[INFO] CorrectBoundary: 0.561 [ms]
[INFO] PISOStep: 5525.26 [ms]
[INFO] TimeStep: 11766.9 [ms]
ExecutionTime = 61.73 s  ClockTime = 63 s

Time = 0.0004

Courant Number mean: 0.0147662 max: 0.379618
[INFO] MatrixAssemblyU: 46.941 [ms]
DILUPBiCGStab:  Solving for Ux, Initial residual = 0.0377923, Final residual = 0.00531807, No Iterations 5
DILUPBiCGStab:  Solving for Uy, Initial residual = 0.166611, Final residual = 0.0262143, No Iterations 5
DILUPBiCGStab:  Solving for Uz, Initial residual = 0.702535, Final residual = 0.0733497, No Iterations 5
[INFO] MomentumPredictor: 332.315 [ms]
[INFO] MatrixAssemblyPI: 51.949 [ms]
[INFO] AdjustPhi: 5.383 [ms]
[INFO] ConstrainPressure: 0.003 [ms]
[INFO] MatrixAssemblyPII: 11.682 [ms]
nonePCG:  Solving for p, Initial residual = 0.906452, Final residual = 9.96677e-05, No Iterations 1508
[INFO] SolveP: 5500.39 [ms]
time step continuity errors : sum local = 6.05928e-09, global = 2.26358e-22, cumulative = 2.33821e-21
[INFO] ContinuityError: 7.349 [ms]
[INFO] CorrectBoundary: 1.157 [ms]
[INFO] PISOStep: 5598.9 [ms]
[INFO] MatrixAssemblyPI: 49.46 [ms]
[INFO] AdjustPhi: 6.848 [ms]
[INFO] ConstrainPressure: 0.004 [ms]
[INFO] MatrixAssemblyPII: 11.386 [ms]
nonePCG:  Solving for p, Initial residual = 0.842542, Final residual = 9.8578e-05, No Iterations 1502
[INFO] SolveP: 5482.09 [ms]
time step continuity errors : sum local = 5.85929e-09, global = 4.94359e-22, cumulative = 2.83256e-21
[INFO] ContinuityError: 6.093 [ms]
[INFO] CorrectBoundary: 0.744 [ms]
[INFO] PISOStep: 5579.79 [ms]
[INFO] TimeStep: 11563.5 [ms]
ExecutionTime = 73.21 s  ClockTime = 74 s

Time = 0.0005

Courant Number mean: 0.0169962 max: 0.409939
[INFO] MatrixAssemblyU: 41.155 [ms]
DILUPBiCGStab:  Solving for Ux, Initial residual = 0.0318062, Final residual = 0.00472197, No Iterations 5
DILUPBiCGStab:  Solving for Uy, Initial residual = 0.127381, Final residual = 0.0218156, No Iterations 5
DILUPBiCGStab:  Solving for Uz, Initial residual = 0.611707, Final residual = 0.0573882, No Iterations 5
[INFO] MomentumPredictor: 339.812 [ms]
[INFO] MatrixAssemblyPI: 51.691 [ms]
[INFO] AdjustPhi: 6.577 [ms]
[INFO] ConstrainPressure: 0.003 [ms]
[INFO] MatrixAssemblyPII: 11.627 [ms]
nonePCG:  Solving for p, Initial residual = 0.927291, Final residual = 9.83482e-05, No Iterations 3070
[INFO] SolveP: 10773.4 [ms]
time step continuity errors : sum local = 5.84796e-09, global = 6.35637e-24, cumulative = 2.83892e-21
[INFO] ContinuityError: 4.505 [ms]
[INFO] CorrectBoundary: 0.934 [ms]
[INFO] PISOStep: 10876.5 [ms]
[INFO] MatrixAssemblyPI: 50.528 [ms]
[INFO] AdjustPhi: 4.075 [ms]
[INFO] ConstrainPressure: 0.004 [ms]
[INFO] MatrixAssemblyPII: 12.902 [ms]
nonePCG:  Solving for p, Initial residual = 0.882672, Final residual = 9.95341e-05, No Iterations 3068
[INFO] SolveP: 10919.3 [ms]
time step continuity errors : sum local = 5.85771e-09, global = 8.94363e-23, cumulative = 2.92836e-21
[INFO] ContinuityError: 5.643 [ms]
[INFO] CorrectBoundary: 1.088 [ms]
[INFO] PISOStep: 11013.8 [ms]
[INFO] TimeStep: 22278.2 [ms]
ExecutionTime = 95.32 s  ClockTime = 97 s

Time = 0.0006

Courant Number mean: 0.0187812 max: 0.384591
[INFO] MatrixAssemblyU: 40.697 [ms]
DILUPBiCGStab:  Solving for Ux, Initial residual = 0.027164, Final residual = 0.00435595, No Iterations 5
DILUPBiCGStab:  Solving for Uy, Initial residual = 0.109922, Final residual = 0.0177068, No Iterations 5
DILUPBiCGStab:  Solving for Uz, Initial residual = 0.534951, Final residual = 0.0475228, No Iterations 5
[INFO] MomentumPredictor: 345.49 [ms]
[INFO] MatrixAssemblyPI: 51.607 [ms]
[INFO] AdjustPhi: 4.788 [ms]
[INFO] ConstrainPressure: 0.003 [ms]
[INFO] MatrixAssemblyPII: 11.642 [ms]
nonePCG:  Solving for p, Initial residual = 0.912513, Final residual = 9.98725e-05, No Iterations 3059
[INFO] SolveP: 10642.4 [ms]
time step continuity errors : sum local = 6.26418e-09, global = -5.02382e-22, cumulative = 2.42597e-21
[INFO] ContinuityError: 4.393 [ms]
[INFO] CorrectBoundary: 1.331 [ms]
[INFO] PISOStep: 10739.2 [ms]
[INFO] MatrixAssemblyPI: 50.67 [ms]
[INFO] AdjustPhi: 6.88 [ms]
[INFO] ConstrainPressure: 0.004 [ms]
[INFO] MatrixAssemblyPII: 12.92 [ms]
nonePCG:  Solving for p, Initial residual = 0.844667, Final residual = 9.85494e-05, No Iterations 3055
[INFO] SolveP: 10706.5 [ms]
time step continuity errors : sum local = 6.26984e-09, global = 1.40176e-22, cumulative = 2.56615e-21
[INFO] ContinuityError: 5.525 [ms]
[INFO] CorrectBoundary: 0.986 [ms]
[INFO] PISOStep: 10804.9 [ms]
[INFO] TimeStep: 21935.9 [ms]
ExecutionTime = 117.13 s  ClockTime = 119 s

Time = 0.0007

Courant Number mean: 0.0203487 max: 0.418495
[INFO] MatrixAssemblyU: 41.59 [ms]
DILUPBiCGStab:  Solving for Ux, Initial residual = 0.0246865, Final residual = 0.00402567, No Iterations 5
DILUPBiCGStab:  Solving for Uy, Initial residual = 0.0982996, Final residual = 0.015877, No Iterations 5
DILUPBiCGStab:  Solving for Uz, Initial residual = 0.50473, Final residual = 0.0408934, No Iterations 5
[INFO] MomentumPredictor: 325.796 [ms]
[INFO] MatrixAssemblyPI: 51.525 [ms]
[INFO] AdjustPhi: 5.293 [ms]
[INFO] ConstrainPressure: 0.003 [ms]
[INFO] MatrixAssemblyPII: 11.687 [ms]
nonePCG:  Solving for p, Initial residual = 0.930214, Final residual = 9.95215e-05, No Iterations 3047
[INFO] SolveP: 10616 [ms]
time step continuity errors : sum local = 6.30879e-09, global = 3.01655e-22, cumulative = 2.86781e-21
[INFO] ContinuityError: 5.974 [ms]
[INFO] CorrectBoundary: 1.931 [ms]
[INFO] PISOStep: 10713.5 [ms]
[INFO] MatrixAssemblyPI: 49.957 [ms]
[INFO] AdjustPhi: 4.366 [ms]
[INFO] ConstrainPressure: 0.004 [ms]
[INFO] MatrixAssemblyPII: 11.415 [ms]
nonePCG:  Solving for p, Initial residual = 0.878516, Final residual = 9.92971e-05, No Iterations 3044
[INFO] SolveP: 10546.1 [ms]
time step continuity errors : sum local = 6.23973e-09, global = 5.34837e-23, cumulative = 2.92129e-21
[INFO] ContinuityError: 5.347 [ms]
[INFO] CorrectBoundary: 0.391 [ms]
[INFO] PISOStep: 10642.1 [ms]
[INFO] TimeStep: 21728.2 [ms]
ExecutionTime = 138.7 s  ClockTime = 140 s

Time = 0.0008

Courant Number mean: 0.0217049 max: 0.386942
[INFO] MatrixAssemblyU: 46.679 [ms]
DILUPBiCGStab:  Solving for Ux, Initial residual = 0.0225683, Final residual = 0.00376961, No Iterations 5
DILUPBiCGStab:  Solving for Uy, Initial residual = 0.0874578, Final residual = 0.0135172, No Iterations 5
DILUPBiCGStab:  Solving for Uz, Initial residual = 0.47096, Final residual = 0.0376675, No Iterations 5
[INFO] MomentumPredictor: 324.173 [ms]
[INFO] MatrixAssemblyPI: 51.002 [ms]
[INFO] AdjustPhi: 5.214 [ms]
[INFO] ConstrainPressure: 0.003 [ms]
[INFO] MatrixAssemblyPII: 11.709 [ms]
nonePCG:  Solving for p, Initial residual = 0.915405, Final residual = 9.9115e-05, No Iterations 3027
[INFO] SolveP: 10509 [ms]
time step continuity errors : sum local = 6.55507e-09, global = 9.12906e-22, cumulative = 3.8342e-21
[INFO] ContinuityError: 6.75 [ms]
[INFO] CorrectBoundary: 0.896 [ms]
[INFO] PISOStep: 10605.9 [ms]
[INFO] MatrixAssemblyPI: 50.62 [ms]
[INFO] AdjustPhi: 7.17 [ms]
[INFO] ConstrainPressure: 0.003 [ms]
[INFO] MatrixAssemblyPII: 11.514 [ms]
nonePCG:  Solving for p, Initial residual = 0.844115, Final residual = 9.86431e-05, No Iterations 3034
[INFO] SolveP: 10622.1 [ms]
time step continuity errors : sum local = 6.60874e-09, global = 3.32393e-22, cumulative = 4.16659e-21
[INFO] ContinuityError: 6.249 [ms]
[INFO] CorrectBoundary: 1.377 [ms]
[INFO] PISOStep: 10721.3 [ms]
[INFO] TimeStep: 21704.8 [ms]
ExecutionTime = 160.25 s  ClockTime = 162 s

Time = 0.0009

Courant Number mean: 0.02295 max: 0.426517
[INFO] MatrixAssemblyU: 40.582 [ms]
DILUPBiCGStab:  Solving for Ux, Initial residual = 0.0210727, Final residual = 0.00350525, No Iterations 5
DILUPBiCGStab:  Solving for Uy, Initial residual = 0.0833176, Final residual = 0.0125933, No Iterations 5
DILUPBiCGStab:  Solving for Uz, Initial residual = 0.464415, Final residual = 0.0349269, No Iterations 5
[INFO] MomentumPredictor: 329.093 [ms]
[INFO] MatrixAssemblyPI: 51.512 [ms]
[INFO] AdjustPhi: 4.984 [ms]
[INFO] ConstrainPressure: 0.003 [ms]
[INFO] MatrixAssemblyPII: 11.775 [ms]
nonePCG:  Solving for p, Initial residual = 0.930419, Final residual = 9.93546e-05, No Iterations 3036
[INFO] SolveP: 10529.7 [ms]
time step continuity errors : sum local = 6.63488e-09, global = 2.05104e-22, cumulative = 4.37169e-21
[INFO] ContinuityError: 3.964 [ms]
[INFO] CorrectBoundary: 0.492 [ms]
[INFO] PISOStep: 10626.6 [ms]
[INFO] MatrixAssemblyPI: 50.354 [ms]
[INFO] AdjustPhi: 4.637 [ms]
[INFO] ConstrainPressure: 0.004 [ms]
[INFO] MatrixAssemblyPII: 12.727 [ms]
nonePCG:  Solving for p, Initial residual = 0.874007, Final residual = 9.88156e-05, No Iterations 3034
[INFO] SolveP: 10559 [ms]
time step continuity errors : sum local = 6.5502e-09, global = 5.04985e-22, cumulative = 4.87668e-21
[INFO] ContinuityError: 6.033 [ms]
[INFO] CorrectBoundary: 0.837 [ms]
[INFO] PISOStep: 10654.7 [ms]
[INFO] TimeStep: 21656.1 [ms]
ExecutionTime = 181.77 s  ClockTime = 184 s

Time = 0.001

Courant Number mean: 0.0240615 max: 0.389022
[INFO] MatrixAssemblyU: 41.021 [ms]
DILUPBiCGStab:  Solving for Ux, Initial residual = 0.0199673, Final residual = 0.00333656, No Iterations 5
DILUPBiCGStab:  Solving for Uy, Initial residual = 0.0752299, Final residual = 0.0109991, No Iterations 5
DILUPBiCGStab:  Solving for Uz, Initial residual = 0.447391, Final residual = 0.0331631, No Iterations 5
[INFO] MomentumPredictor: 342.429 [ms]
[INFO] MatrixAssemblyPI: 51.774 [ms]
[INFO] AdjustPhi: 5.769 [ms]
[INFO] ConstrainPressure: 0.004 [ms]
[INFO] MatrixAssemblyPII: 11.826 [ms]
nonePCG:  Solving for p, Initial residual = 0.917552, Final residual = 9.99653e-05, No Iterations 3032
[INFO] SolveP: 10537.2 [ms]
time step continuity errors : sum local = 6.97893e-09, global = 1.70897e-23, cumulative = 4.89377e-21
[INFO] ContinuityError: 6.173 [ms]
[INFO] CorrectBoundary: 1.703 [ms]
[INFO] PISOStep: 10635.8 [ms]
[INFO] MatrixAssemblyPI: 49.809 [ms]
[INFO] AdjustPhi: 6.024 [ms]
[INFO] ConstrainPressure: 0.003 [ms]
[INFO] MatrixAssemblyPII: 11.43 [ms]
nonePCG:  Solving for p, Initial residual = 0.84371, Final residual = 9.86913e-05, No Iterations 3029
[INFO] SolveP: 10592.2 [ms]
time step continuity errors : sum local = 6.97365e-09, global = 2.86879e-22, cumulative = 5.18065e-21
[INFO] ContinuityError: 4.396 [ms]
[INFO] CorrectBoundary: 0.715 [ms]
[INFO] PISOStep: 10689.1 [ms]
[INFO] TimeStep: 21715.3 [ms]
ExecutionTime = 203.32 s  ClockTime = 205 s

Time = 0.0011

Courant Number mean: 0.0251101 max: 0.435132
[INFO] MatrixAssemblyU: 47.653 [ms]
DILUPBiCGStab:  Solving for Ux, Initial residual = 0.0188905, Final residual = 0.00310621, No Iterations 5
DILUPBiCGStab:  Solving for Uy, Initial residual = 0.0742943, Final residual = 0.0105384, No Iterations 5
DILUPBiCGStab:  Solving for Uz, Initial residual = 0.449238, Final residual = 0.0318374, No Iterations 5
[INFO] MomentumPredictor: 351.08 [ms]
[INFO] MatrixAssemblyPI: 51.915 [ms]
[INFO] AdjustPhi: 4.886 [ms]
[INFO] ConstrainPressure: 0.003 [ms]
[INFO] MatrixAssemblyPII: 11.812 [ms]
nonePCG:  Solving for p, Initial residual = 0.932612, Final residual = 9.96777e-05, No Iterations 3025
[INFO] SolveP: 10431.6 [ms]
time step continuity errors : sum local = 7.11146e-09, global = 1.01725e-21, cumulative = 6.1979e-21
[INFO] ContinuityError: 7.103 [ms]
[INFO] CorrectBoundary: 0.885 [ms]
[INFO] PISOStep: 10531.4 [ms]
[INFO] MatrixAssemblyPI: 49.276 [ms]
[INFO] AdjustPhi: 8.161 [ms]
[INFO] ConstrainPressure: 0.005 [ms]
[INFO] MatrixAssemblyPII: 11.318 [ms]
nonePCG:  Solving for p, Initial residual = 0.87068, Final residual = 9.996e-05, No Iterations 3022
[INFO] SolveP: 10805.3 [ms]
time step continuity errors : sum local = 7.08956e-09, global = 6.8816e-22, cumulative = 6.88606e-21
[INFO] ContinuityError: 6.315 [ms]
[INFO] CorrectBoundary: 1.316 [ms]
[INFO] PISOStep: 10905.6 [ms]
[INFO] TimeStep: 21842.4 [ms]
ExecutionTime = 225 s  ClockTime = 227 s

Time = 0.0012

Courant Number mean: 0.0260609 max: 0.392254
[INFO] MatrixAssemblyU: 40.472 [ms]
DILUPBiCGStab:  Solving for Ux, Initial residual = 0.0183105, Final residual = 0.00300785, No Iterations 5
DILUPBiCGStab:  Solving for Uy, Initial residual = 0.068034, Final residual = 0.00935056, No Iterations 5
DILUPBiCGStab:  Solving for Uz, Initial residual = 0.440524, Final residual = 0.0311328, No Iterations 5
[INFO] MomentumPredictor: 339.116 [ms]
[INFO] MatrixAssemblyPI: 51.456 [ms]
[INFO] AdjustPhi: 6.542 [ms]
[INFO] ConstrainPressure: 0.003 [ms]
[INFO] MatrixAssemblyPII: 11.765 [ms]
nonePCG:  Solving for p, Initial residual = 0.922161, Final residual = 9.80999e-05, No Iterations 3030
[INFO] SolveP: 10898.1 [ms]
time step continuity errors : sum local = 7.40887e-09, global = 6.95692e-22, cumulative = 7.58175e-21
[INFO] ContinuityError: 4.248 [ms]
[INFO] CorrectBoundary: 0.502 [ms]
[INFO] PISOStep: 10998.4 [ms]
[INFO] MatrixAssemblyPI: 49.737 [ms]
[INFO] AdjustPhi: 5.858 [ms]
[INFO] ConstrainPressure: 0.004 [ms]
[INFO] MatrixAssemblyPII: 12.91 [ms]
nonePCG:  Solving for p, Initial residual = 0.845179, Final residual = 9.93016e-05, No Iterations 3026
[INFO] SolveP: 10598.3 [ms]
time step continuity errors : sum local = 7.57972e-09, global = 4.34941e-22, cumulative = 8.01669e-21
[INFO] ContinuityError: 6.106 [ms]
[INFO] CorrectBoundary: 1.318 [ms]
[INFO] PISOStep: 10694.7 [ms]
[INFO] TimeStep: 22078.5 [ms]
ExecutionTime = 246.93 s  ClockTime = 249 s

Time = 0.0013

Courant Number mean: 0.0269748 max: 0.444988
[INFO] MatrixAssemblyU: 40.901 [ms]
DILUPBiCGStab:  Solving for Ux, Initial residual = 0.0174923, Final residual = 0.00280265, No Iterations 5
DILUPBiCGStab:  Solving for Uy, Initial residual = 0.0684836, Final residual = 0.00913244, No Iterations 5
DILUPBiCGStab:  Solving for Uz, Initial residual = 0.446501, Final residual = 0.0304642, No Iterations 5
[INFO] MomentumPredictor: 329.683 [ms]
[INFO] MatrixAssemblyPI: 51.486 [ms]
[INFO] AdjustPhi: 10.474 [ms]
[INFO] ConstrainPressure: 0.002 [ms]
[INFO] MatrixAssemblyPII: 11.749 [ms]
nonePCG:  Solving for p, Initial residual = 0.93627, Final residual = 9.92137e-05, No Iterations 2779
[INFO] SolveP: 10160.2 [ms]
time step continuity errors : sum local = 7.74197e-09, global = 2.45693e-22, cumulative = 8.26239e-21
[INFO] ContinuityError: 4.084 [ms]
[INFO] CorrectBoundary: 0.539 [ms]
[INFO] PISOStep: 10265.2 [ms]
[INFO] MatrixAssemblyPI: 50.306 [ms]
[INFO] AdjustPhi: 4.388 [ms]
[INFO] ConstrainPressure: 0.005 [ms]
[INFO] MatrixAssemblyPII: 12.768 [ms]
nonePCG:  Solving for p, Initial residual = 0.869849, Final residual = 9.86782e-05, No Iterations 2775
[INFO] SolveP: 9624.93 [ms]
time step continuity errors : sum local = 7.66602e-09, global = 1.94201e-22, cumulative = 8.45659e-21
[INFO] ContinuityError: 5.325 [ms]
[INFO] CorrectBoundary: 1.101 [ms]
[INFO] PISOStep: 9718.85 [ms]
[INFO] TimeStep: 20361.4 [ms]
ExecutionTime = 267.14 s  ClockTime = 270 s

Time = 0.0014

Courant Number mean: 0.0278104 max: 0.395587
[INFO] MatrixAssemblyU: 41.039 [ms]
DILUPBiCGStab:  Solving for Ux, Initial residual = 0.0172096, Final residual = 0.00274529, No Iterations 5
DILUPBiCGStab:  Solving for Uy, Initial residual = 0.0636897, Final residual = 0.00819711, No Iterations 5
DILUPBiCGStab:  Solving for Uz, Initial residual = 0.447455, Final residual = 0.0320015, No Iterations 5
[INFO] MomentumPredictor: 321.347 [ms]
[INFO] MatrixAssemblyPI: 51.828 [ms]
[INFO] AdjustPhi: 3.998 [ms]
[INFO] ConstrainPressure: 0.003 [ms]
[INFO] MatrixAssemblyPII: 11.682 [ms]
nonePCG:  Solving for p, Initial residual = 0.927616, Final residual = 9.95621e-05, No Iterations 2791
[INFO] SolveP: 9716.32 [ms]
time step continuity errors : sum local = 8.23295e-09, global = 3.42494e-22, cumulative = 8.79908e-21
[INFO] ContinuityError: 8.044 [ms]
[INFO] CorrectBoundary: 1.631 [ms]
[INFO] PISOStep: 9814.82 [ms]
[INFO] MatrixAssemblyPI: 49.924 [ms]
[INFO] AdjustPhi: 4.765 [ms]
[INFO] ConstrainPressure: 0.003 [ms]
[INFO] MatrixAssemblyPII: 11.297 [ms]
nonePCG:  Solving for p, Initial residual = 0.84919, Final residual = 9.91396e-05, No Iterations 2769
[INFO] SolveP: 9777.91 [ms]
time step continuity errors : sum local = 8.27359e-09, global = 7.62071e-22, cumulative = 9.56115e-21
[INFO] ContinuityError: 4.765 [ms]
[INFO] CorrectBoundary: 0.389 [ms]
[INFO] PISOStep: 9874.43 [ms]
[INFO] TimeStep: 20057.2 [ms]
ExecutionTime = 287.07 s  ClockTime = 290 s

Time = 0.0015

Courant Number mean: 0.0286246 max: 0.456131
[INFO] MatrixAssemblyU: 47.259 [ms]
DILUPBiCGStab:  Solving for Ux, Initial residual = 0.0165915, Final residual = 0.00256279, No Iterations 5
DILUPBiCGStab:  Solving for Uy, Initial residual = 0.0646937, Final residual = 0.00812255, No Iterations 5
DILUPBiCGStab:  Solving for Uz, Initial residual = 0.453623, Final residual = 0.0307728, No Iterations 5
[INFO] MomentumPredictor: 333.223 [ms]
[INFO] MatrixAssemblyPI: 51.928 [ms]
[INFO] AdjustPhi: 5.245 [ms]
[INFO] ConstrainPressure: 0.003 [ms]
[INFO] MatrixAssemblyPII: 11.823 [ms]
nonePCG:  Solving for p, Initial residual = 0.939903, Final residual = 9.9499e-05, No Iterations 2844
[INFO] SolveP: 9835.96 [ms]
time step continuity errors : sum local = 8.51472e-09, global = -3.48388e-22, cumulative = 9.21277e-21
[INFO] ContinuityError: 5.706 [ms]
[INFO] CorrectBoundary: 1.224 [ms]
[INFO] PISOStep: 9933.31 [ms]
[INFO] MatrixAssemblyPI: 49.824 [ms]
[INFO] AdjustPhi: 6.908 [ms]
[INFO] ConstrainPressure: 0.005 [ms]
[INFO] MatrixAssemblyPII: 11.498 [ms]
nonePCG:  Solving for p, Initial residual = 0.870055, Final residual = 9.99e-05, No Iterations 2847
[INFO] SolveP: 9964.36 [ms]
time step continuity errors : sum local = 8.52123e-09, global = 2.36512e-22, cumulative = 9.44928e-21
[INFO] ContinuityError: 5.995 [ms]
[INFO] CorrectBoundary: 1.392 [ms]
[INFO] PISOStep: 10062 [ms]
[INFO] TimeStep: 20381.8 [ms]
ExecutionTime = 307.3 s  ClockTime = 310 s

Time = 0.0016

Courant Number mean: 0.0293727 max: 0.399058
[INFO] MatrixAssemblyU: 40.235 [ms]
DILUPBiCGStab:  Solving for Ux, Initial residual = 0.0165923, Final residual = 0.00255999, No Iterations 5
DILUPBiCGStab:  Solving for Uy, Initial residual = 0.0610533, Final residual = 0.00735917, No Iterations 5
DILUPBiCGStab:  Solving for Uz, Initial residual = 0.45105, Final residual = 0.0302017, No Iterations 5
[INFO] MomentumPredictor: 328.889 [ms]
[INFO] MatrixAssemblyPI: 51.128 [ms]
[INFO] AdjustPhi: 7.058 [ms]
[INFO] ConstrainPressure: 0.003 [ms]
[INFO] MatrixAssemblyPII: 11.626 [ms]
nonePCG:  Solving for p, Initial residual = 0.932903, Final residual = 9.95454e-05, No Iterations 3005
[INFO] SolveP: 10543 [ms]
time step continuity errors : sum local = 9.00553e-09, global = 6.34058e-22, cumulative = 1.00833e-20
[INFO] ContinuityError: 3.96 [ms]
[INFO] CorrectBoundary: 0.633 [ms]
[INFO] PISOStep: 10643.3 [ms]
[INFO] MatrixAssemblyPI: 49.841 [ms]
[INFO] AdjustPhi: 5.354 [ms]
[INFO] ConstrainPressure: 0.004 [ms]
[INFO] MatrixAssemblyPII: 12.731 [ms]
nonePCG:  Solving for p, Initial residual = 0.852813, Final residual = 9.9548e-05, No Iterations 2995
[INFO] SolveP: 10523.1 [ms]
time step continuity errors : sum local = 9.07756e-09, global = 5.0879e-22, cumulative = 1.05921e-20
[INFO] ContinuityError: 5.168 [ms]
[INFO] CorrectBoundary: 1.042 [ms]
[INFO] PISOStep: 10617.6 [ms]
[INFO] TimeStep: 21635.2 [ms]
ExecutionTime = 328.79 s  ClockTime = 332 s

Time = 0.0017

Courant Number mean: 0.0301099 max: 0.468911
[INFO] MatrixAssemblyU: 41.251 [ms]
DILUPBiCGStab:  Solving for Ux, Initial residual = 0.0161183, Final residual = 0.00238752, No Iterations 5
DILUPBiCGStab:  Solving for Uy, Initial residual = 0.0623768, Final residual = 0.00737678, No Iterations 5
DILUPBiCGStab:  Solving for Uz, Initial residual = 0.459569, Final residual = 0.029667, No Iterations 5
[INFO] MomentumPredictor: 339.354 [ms]
[INFO] MatrixAssemblyPI: 51.841 [ms]
[INFO] AdjustPhi: 4.904 [ms]
[INFO] ConstrainPressure: 0.003 [ms]
[INFO] MatrixAssemblyPII: 11.608 [ms]
nonePCG:  Solving for p, Initial residual = 0.943457, Final residual = 9.95207e-05, No Iterations 2740
[INFO] SolveP: 9544.3 [ms]
time step continuity errors : sum local = 9.33215e-09, global = 7.48433e-22, cumulative = 1.13406e-20
[INFO] ContinuityError: 5.945 [ms]
[INFO] CorrectBoundary: 2.118 [ms]
[INFO] PISOStep: 9641.85 [ms]
[INFO] MatrixAssemblyPI: 49.957 [ms]
[INFO] AdjustPhi: 4.656 [ms]
[INFO] ConstrainPressure: 0.003 [ms]
[INFO] MatrixAssemblyPII: 11.277 [ms]
nonePCG:  Solving for p, Initial residual = 0.87017, Final residual = 9.99985e-05, No Iterations 2730
[INFO] SolveP: 9546.89 [ms]
time step continuity errors : sum local = 9.35564e-09, global = 3.6731e-22, cumulative = 1.17079e-20
[INFO] ContinuityError: 5.031 [ms]
[INFO] CorrectBoundary: 0.378 [ms]
[INFO] PISOStep: 9644.68 [ms]
[INFO] TimeStep: 19673.8 [ms]
ExecutionTime = 348.32 s  ClockTime = 352 s

Time = 0.0018

Courant Number mean: 0.0307891 max: 0.402893
[INFO] MatrixAssemblyU: 47.518 [ms]
DILUPBiCGStab:  Solving for Ux, Initial residual = 0.0161045, Final residual = 0.00236254, No Iterations 5
DILUPBiCGStab:  Solving for Uy, Initial residual = 0.0597205, Final residual = 0.00676709, No Iterations 5
DILUPBiCGStab:  Solving for Uz, Initial residual = 0.461367, Final residual = 0.0303751, No Iterations 5
[INFO] MomentumPredictor: 327.164 [ms]
[INFO] MatrixAssemblyPI: 51.75 [ms]
[INFO] AdjustPhi: 4.806 [ms]
[INFO] ConstrainPressure: 0.004 [ms]
[INFO] MatrixAssemblyPII: 11.811 [ms]
nonePCG:  Solving for p, Initial residual = 0.938439, Final residual = 9.95255e-05, No Iterations 2944
[INFO] SolveP: 10200.7 [ms]
time step continuity errors : sum local = 9.84015e-09, global = 1.26825e-22, cumulative = 1.18347e-20
[INFO] ContinuityError: 5.269 [ms]
[INFO] CorrectBoundary: 1.183 [ms]
[INFO] PISOStep: 10299.1 [ms]
[INFO] MatrixAssemblyPI: 49.865 [ms]
[INFO] AdjustPhi: 6.847 [ms]
[INFO] ConstrainPressure: 0.003 [ms]
[INFO] MatrixAssemblyPII: 11.507 [ms]
nonePCG:  Solving for p, Initial residual = 0.856486, Final residual = 9.86186e-05, No Iterations 2940
[INFO] SolveP: 10388.4 [ms]
time step continuity errors : sum local = 9.81819e-09, global = 1.13914e-21, cumulative = 1.29738e-20
[INFO] ContinuityError: 6.872 [ms]
[INFO] CorrectBoundary: 1.446 [ms]
[INFO] PISOStep: 10487.1 [ms]
[INFO] TimeStep: 21167.5 [ms]
ExecutionTime = 369.34 s  ClockTime = 373 s

Time = 0.0019

Courant Number mean: 0.0314652 max: 0.483797
[INFO] MatrixAssemblyU: 39.477 [ms]
DILUPBiCGStab:  Solving for Ux, Initial residual = 0.0158891, Final residual = 0.00224481, No Iterations 5
DILUPBiCGStab:  Solving for Uy, Initial residual = 0.0611833, Final residual = 0.00679385, No Iterations 5
DILUPBiCGStab:  Solving for Uz, Initial residual = 0.469219, Final residual = 0.0294387, No Iterations 5
[INFO] MomentumPredictor: 335.474 [ms]
[INFO] MatrixAssemblyPI: 52.627 [ms]
[INFO] AdjustPhi: 4.711 [ms]
[INFO] ConstrainPressure: 0.003 [ms]
[INFO] MatrixAssemblyPII: 12.145 [ms]
nonePCG:  Solving for p, Initial residual = 0.946929, Final residual = 9.9614e-05, No Iterations 2830
[INFO] SolveP: 9821.75 [ms]
time step continuity errors : sum local = 1.02313e-08, global = 4.9118e-22, cumulative = 1.3465e-20
[INFO] ContinuityError: 3.707 [ms]
[INFO] CorrectBoundary: 0.834 [ms]
[INFO] PISOStep: 9920.14 [ms]
[INFO] MatrixAssemblyPI: 49.817 [ms]
[INFO] AdjustPhi: 5.868 [ms]
[INFO] ConstrainPressure: 0.004 [ms]
[INFO] MatrixAssemblyPII: 12.904 [ms]
nonePCG:  Solving for p, Initial residual = 0.870404, Final residual = 9.94761e-05, No Iterations 2828
[INFO] SolveP: 9830.15 [ms]
time step continuity errors : sum local = 1.02022e-08, global = 7.89916e-22, cumulative = 1.42549e-20
[INFO] ContinuityError: 6.041 [ms]
[INFO] CorrectBoundary: 0.774 [ms]
[INFO] PISOStep: 9925.57 [ms]
[INFO] TimeStep: 20225.7 [ms]
ExecutionTime = 389.42 s  ClockTime = 393 s

Time = 0.002

Courant Number mean: 0.0320884 max: 0.407118
[INFO] MatrixAssemblyU: 41.103 [ms]
DILUPBiCGStab:  Solving for Ux, Initial residual = 0.0160225, Final residual = 0.00224588, No Iterations 5
DILUPBiCGStab:  Solving for Uy, Initial residual = 0.059252, Final residual = 0.00629595, No Iterations 5
DILUPBiCGStab:  Solving for Uz, Initial residual = 0.471707, Final residual = 0.029799, No Iterations 5
[INFO] MomentumPredictor: 343.727 [ms]
[INFO] MatrixAssemblyPI: 51.338 [ms]
[INFO] AdjustPhi: 5.188 [ms]
[INFO] ConstrainPressure: 0.003 [ms]
[INFO] MatrixAssemblyPII: 11.745 [ms]
nonePCG:  Solving for p, Initial residual = 0.943617, Final residual = 9.98183e-05, No Iterations 2998
[INFO] SolveP: 10553.2 [ms]
time step continuity errors : sum local = 1.07886e-08, global = 2.85487e-22, cumulative = 1.45404e-20
[INFO] ContinuityError: 6.372 [ms]
[INFO] CorrectBoundary: 1.988 [ms]
[INFO] PISOStep: 10650.9 [ms]
[INFO] MatrixAssemblyPI: 49.683 [ms]
[INFO] AdjustPhi: 5.381 [ms]
[INFO] ConstrainPressure: 0.002 [ms]
[INFO] MatrixAssemblyPII: 11.167 [ms]
nonePCG:  Solving for p, Initial residual = 0.86012, Final residual = 9.99986e-05, No Iterations 2958
[INFO] SolveP: 10249.8 [ms]
time step continuity errors : sum local = 1.0874e-08, global = 4.40001e-22, cumulative = 1.49804e-20
[INFO] ContinuityError: 5.719 [ms]
[INFO] CorrectBoundary: 0.436 [ms]
[INFO] PISOStep: 10347.1 [ms]
[INFO] TimeStep: 21389.4 [ms]
ExecutionTime = 410.66 s  ClockTime = 414 s

End

Finalising parallel run
