/*---------------------------------------------------------------------------*\
| =========                 |                                                 |
| \\      /  F ield         | OpenFOAM: The Open Source CFD Toolbox           |
|  \\    /   O peration     | Version:  2312                                  |
|   \\  /    A nd           | Website:  www.openfoam.com                      |
|    \\/     M anipulation  |                                                 |
\*---------------------------------------------------------------------------*/
Build  : a46b310f-20240104 OPENFOAM=2312 version=v2312
Arch   : "LSB;label=32;scalar=64"
Exec   : decomposePar -force
Date   : Feb 16 2024
Time   : 21:53:14
Host   : i20r02c04s06
PID    : 39052
--> FOAM Warning : 
    From Foam::fileName Foam::cwd_L()
    in file POSIX.C at line 552
    PWD is not the cwd() - reverting to physical description
I/O    : uncollated
--> FOAM Warning : 
    From Foam::fileName Foam::cwd_L()
    in file POSIX.C at line 552
    PWD is not the cwd() - reverting to physical description
Case   : /hppfs/scratch/0B/di35yan/lidDriven3D/workspace/29ab183e82e4213c0ddcbc124ea14b99/case
nProcs : 1
trapFpe: Floating point exception trapping enabled (FOAM_SIGFPE).
fileModificationChecking : Monitoring run-time modified files using timeStampMaster (fileModificationSkew 5, maxFileModificationPolls 20)
allowSystemOperations : Allowing user-supplied system call operations

// * * * * * * * * * * * * * * * * * * * * * * * * * * * * * * * * * * * * * //
Create time

--> FOAM Warning : 
    From void* Foam::dlLibraryTable::openLibrary(const Foam::fileName&, bool)
    in file db/dynamicLibrary/dlLibraryTable/dlLibraryTable.C at line 188
    Could not load "libpetscFoam.so"
libpetscFoam.so: cannot open shared object file: No such file or directory


Decomposing mesh

Create mesh

Calculating distribution of cells
Decomposition method simple [12] (region region0)

Finished decomposition in 16.8 s

Calculating original mesh data

Distributing cells to processors

Distributing faces to processors

Distributing points to processors

Constructing processor meshes

Processor 0
    Number of cells = 2250000
    Number of points = 2318001
    Number of faces shared with processor 1 = 45000
    Number of faces shared with processor 6 = 15000
    Number of processor patches = 2
    Number of processor faces = 60000
    Number of boundary faces = 75000

Processor 1
    Number of cells = 2250000
    Number of points = 2318001
    Number of faces shared with processor 0 = 45000
    Number of faces shared with processor 2 = 45000
    Number of faces shared with processor 7 = 15000
    Number of processor patches = 3
    Number of processor faces = 105000
    Number of boundary faces = 30000

Processor 2
    Number of cells = 2250000
    Number of points = 2318001
    Number of faces shared with processor 1 = 45000
    Number of faces shared with processor 3 = 45000
    Number of faces shared with processor 8 = 15000
    Number of processor patches = 3
    Number of processor faces = 105000
    Number of boundary faces = 30000

Processor 3
    Number of cells = 2250000
    Number of points = 2318001
    Number of faces shared with processor 2 = 45000
    Number of faces shared with processor 4 = 45000
    Number of faces shared with processor 9 = 15000
    Number of processor patches = 3
    Number of processor faces = 105000
    Number of boundary faces = 30000

Processor 4
    Number of cells = 2250000
    Number of points = 2318001
    Number of faces shared with processor 3 = 45000
    Number of faces shared with processor 5 = 45000
    Number of faces shared with processor 10 = 15000
    Number of processor patches = 3
    Number of processor faces = 105000
    Number of boundary faces = 30000

Processor 5
    Number of cells = 2250000
    Number of points = 2318001
    Number of faces shared with processor 4 = 45000
    Number of faces shared with processor 11 = 15000
    Number of processor patches = 2
    Number of processor faces = 60000
    Number of boundary faces = 75000

Processor 6
    Number of cells = 2250000
    Number of points = 2318001
    Number of faces shared with processor 0 = 15000
    Number of faces shared with processor 7 = 45000
    Number of processor patches = 2
    Number of processor faces = 60000
    Number of boundary faces = 75000

Processor 7
    Number of cells = 2250000
    Number of points = 2318001
    Number of faces shared with processor 1 = 15000
    Number of faces shared with processor 6 = 45000
    Number of faces shared with processor 8 = 45000
    Number of processor patches = 3
    Number of processor faces = 105000
    Number of boundary faces = 30000

Processor 8
    Number of cells = 2250000
    Number of points = 2318001
    Number of faces shared with processor 2 = 15000
    Number of faces shared with processor 7 = 45000
    Number of faces shared with processor 9 = 45000
    Number of processor patches = 3
    Number of processor faces = 105000
    Number of boundary faces = 30000

Processor 9
    Number of cells = 2250000
    Number of points = 2318001
    Number of faces shared with processor 3 = 15000
    Number of faces shared with processor 8 = 45000
    Number of faces shared with processor 10 = 45000
    Number of processor patches = 3
    Number of processor faces = 105000
    Number of boundary faces = 30000

Processor 10
    Number of cells = 2250000
    Number of points = 2318001
    Number of faces shared with processor 4 = 15000
    Number of faces shared with processor 9 = 45000
    Number of faces shared with processor 11 = 45000
    Number of processor patches = 3
    Number of processor faces = 105000
    Number of boundary faces = 30000

Processor 11
    Number of cells = 2250000
    Number of points = 2318001
    Number of faces shared with processor 5 = 15000
    Number of faces shared with processor 10 = 45000
    Number of processor patches = 2
    Number of processor faces = 60000
    Number of boundary faces = 75000

Number of processor faces = 540000
Max number of cells = 2250000 (0% above average 2.25e+06)
Max number of processor patches = 3 (12.5% above average 2.66667)
Max number of faces between processors = 105000 (16.6667% above average 90000)

Time = 0

Processor 0: field transfer
--> FOAM Warning : 
    From void* Foam::dlLibraryTable::openLibrary(const Foam::fileName&, bool)
    in file db/dynamicLibrary/dlLibraryTable/dlLibraryTable.C at line 188
    Could not load "libpetscFoam.so"
libpetscFoam.so: cannot open shared object file: No such file or directory
Processor 1: field transfer
--> FOAM Warning : 
    From void* Foam::dlLibraryTable::openLibrary(const Foam::fileName&, bool)
    in file db/dynamicLibrary/dlLibraryTable/dlLibraryTable.C at line 188
    Could not load "libpetscFoam.so"
libpetscFoam.so: cannot open shared object file: No such file or directory
Processor 2: field transfer
--> FOAM Warning : 
    From void* Foam::dlLibraryTable::openLibrary(const Foam::fileName&, bool)
    in file db/dynamicLibrary/dlLibraryTable/dlLibraryTable.C at line 188
    Could not load "libpetscFoam.so"
libpetscFoam.so: cannot open shared object file: No such file or directory
Processor 3: field transfer
--> FOAM Warning : 
    From void* Foam::dlLibraryTable::openLibrary(const Foam::fileName&, bool)
    in file db/dynamicLibrary/dlLibraryTable/dlLibraryTable.C at line 188
    Could not load "libpetscFoam.so"
libpetscFoam.so: cannot open shared object file: No such file or directory
Processor 4: field transfer
--> FOAM Warning : 
    From void* Foam::dlLibraryTable::openLibrary(const Foam::fileName&, bool)
    in file db/dynamicLibrary/dlLibraryTable/dlLibraryTable.C at line 188
    Could not load "libpetscFoam.so"
libpetscFoam.so: cannot open shared object file: No such file or directory
Processor 5: field transfer
--> FOAM Warning : 
    From void* Foam::dlLibraryTable::openLibrary(const Foam::fileName&, bool)
    in file db/dynamicLibrary/dlLibraryTable/dlLibraryTable.C at line 188
    Could not load "libpetscFoam.so"
libpetscFoam.so: cannot open shared object file: No such file or directory
Processor 6: field transfer
--> FOAM Warning : 
    From void* Foam::dlLibraryTable::openLibrary(const Foam::fileName&, bool)
    in file db/dynamicLibrary/dlLibraryTable/dlLibraryTable.C at line 188
    Could not load "libpetscFoam.so"
libpetscFoam.so: cannot open shared object file: No such file or directory
Processor 7: field transfer
--> FOAM Warning : 
    From void* Foam::dlLibraryTable::openLibrary(const Foam::fileName&, bool)
    in file db/dynamicLibrary/dlLibraryTable/dlLibraryTable.C at line 188
    Could not load "libpetscFoam.so"
libpetscFoam.so: cannot open shared object file: No such file or directory
Processor 8: field transfer
--> FOAM Warning : 
    From void* Foam::dlLibraryTable::openLibrary(const Foam::fileName&, bool)
    in file db/dynamicLibrary/dlLibraryTable/dlLibraryTable.C at line 188
    Could not load "libpetscFoam.so"
libpetscFoam.so: cannot open shared object file: No such file or directory
Processor 9: field transfer
--> FOAM Warning : 
    From void* Foam::dlLibraryTable::openLibrary(const Foam::fileName&, bool)
    in file db/dynamicLibrary/dlLibraryTable/dlLibraryTable.C at line 188
    Could not load "libpetscFoam.so"
libpetscFoam.so: cannot open shared object file: No such file or directory
Processor 10: field transfer
--> FOAM Warning : 
    From void* Foam::dlLibraryTable::openLibrary(const Foam::fileName&, bool)
    in file db/dynamicLibrary/dlLibraryTable/dlLibraryTable.C at line 188
    Could not load "libpetscFoam.so"
libpetscFoam.so: cannot open shared object file: No such file or directory
Processor 11: field transfer
--> FOAM Warning : 
    From void* Foam::dlLibraryTable::openLibrary(const Foam::fileName&, bool)
    in file db/dynamicLibrary/dlLibraryTable/dlLibraryTable.C at line 188
    Could not load "libpetscFoam.so"
libpetscFoam.so: cannot open shared object file: No such file or directory

End

