/*---------------------------------------------------------------------------*\
| =========                 |                                                 |
| \\      /  F ield         | OpenFOAM: The Open Source CFD Toolbox           |
|  \\    /   O peration     | Version:  2306                                  |
|   \\  /    A nd           | Website:  www.openfoam.com                      |
|    \\/     M anipulation  |                                                 |
\*---------------------------------------------------------------------------*/
Build  : a6e826bd55-20230630 OPENFOAM=2306 version=v2306
Arch   : "LSB;label=32;scalar=64"
Exec   : icoFoam -parallel -case /tmp/lidDrivenCavity/workspace/61ffe6d82516e1c1909399f8ffe9741c/case
Date   : Dec 16 2023
Time   : 11:45:15
Host   : nla-gpu2.ianm.kit.edu
PID    : 172445
I/O    : uncollated
Case   : /tmp/lidDrivenCavity/workspace/61ffe6d82516e1c1909399f8ffe9741c/case
nProcs : 8
Hosts  :
(
    (nla-gpu2.ianm.kit.edu 8)
)
Pstream initialized with:
    floatTransfer      : false
    nProcsSimpleSum    : 0
    nonBlockingExchange: 0 (tuning: 0)
    exchange algorithm : -1
    commsType          : nonBlocking
    polling iterations : 0
trapFpe: Floating point exception trapping enabled (FOAM_SIGFPE).
fileModificationChecking : Monitoring run-time modified files using timeStampMaster (fileModificationSkew 5, maxFileModificationPolls 20)
allowSystemOperations : Allowing user-supplied system call operations

// * * * * * * * * * * * * * * * * * * * * * * * * * * * * * * * * * * * * * //
Create time

--> FOAM Warning : 
    From void* Foam::dlLibraryTable::openLibrary(const Foam::fileName&, bool)
    in file db/dynamicLibrary/dlLibraryTable/dlLibraryTable.C at line 188
    Could not load "libpetscFoam.so"
libpetscFoam.so: cannot open shared object file: No such file or directory
Create mesh for time = 0


PISO: Operating solver in PISO mode

Reading transportProperties

Reading field p

Reading field U

Reading/calculating face flux field phi


Starting time loop

Time = 0.0005

Courant Number mean: 8.62851e-18 max: 8.67362e-15
[INFO] MatrixAssemblyU: 13.548 [ms]
DILUPBiCGStab:  Solving for Ux, Initial residual = 1, Final residual = 0.0025649, No Iterations 5
DILUPBiCGStab:  Solving for Uy:  solution singularity
DILUPBiCGStab:  Solving for Uz:  solution singularity
[INFO] MomentumPredictor: 62.575 [ms]
[INFO] MatrixAssemblyPI: 11.229 [ms]
[INFO] AdjustPhi: 0.73 [ms]
[INFO] ConstrainPressure: 0.011 [ms]
[INFO] MatrixAssemblyPII: 3.295 [ms]
DICPCG:  Solving for p, Initial residual = 1, Final residual = 9.01802e-05, No Iterations 319
[INFO] SolveP: 807.535 [ms]
time step continuity errors : sum local = 1.93656e-08, global = -6.46235e-22, cumulative = -6.46235e-22
[INFO] ContinuityError: 1.976 [ms]
[INFO] CorrectBoundary: 0.379 [ms]
[INFO] PISOStep: 831.348 [ms]
[INFO] MatrixAssemblyPI: 12.453 [ms]
[INFO] AdjustPhi: 0.59 [ms]
[INFO] ConstrainPressure: 0.003 [ms]
[INFO] MatrixAssemblyPII: 3.898 [ms]
DICPCG:  Solving for p, Initial residual = 0.731056, Final residual = 9.38124e-05, No Iterations 318
[INFO] SolveP: 788.421 [ms]
time step continuity errors : sum local = 2.66027e-08, global = -1.19396e-21, cumulative = -1.84019e-21
[INFO] ContinuityError: 3.072 [ms]
[INFO] CorrectBoundary: 0.094 [ms]
[INFO] PISOStep: 814.262 [ms]
[INFO] TimeStep: 1724.31 [ms]
ExecutionTime = 2.03 s  ClockTime = 2 s

Time = 0.001

Courant Number mean: 0.0215341 max: 0.377097
[INFO] MatrixAssemblyU: 8.515 [ms]
DILUPBiCGStab:  Solving for Ux, Initial residual = 0.150351, Final residual = 0.00113128, No Iterations 5
DILUPBiCGStab:  Solving for Uy, Initial residual = 0.36816, Final residual = 0.00224403, No Iterations 5
DILUPBiCGStab:  Solving for Uz, Initial residual = 0.988619, Final residual = 0.00606294, No Iterations 5
[INFO] MomentumPredictor: 110.532 [ms]
[INFO] MatrixAssemblyPI: 13.14 [ms]
[INFO] AdjustPhi: 0.517 [ms]
[INFO] ConstrainPressure: 0.004 [ms]
[INFO] MatrixAssemblyPII: 3.424 [ms]
DICPCG:  Solving for p, Initial residual = 0.690599, Final residual = 9.79378e-05, No Iterations 315
[INFO] SolveP: 817.095 [ms]
time step continuity errors : sum local = 3.10744e-08, global = 4.52764e-21, cumulative = 2.68745e-21
[INFO] ContinuityError: 2.36 [ms]
[INFO] CorrectBoundary: 0.363 [ms]
[INFO] PISOStep: 842.058 [ms]
[INFO] MatrixAssemblyPI: 12.523 [ms]
[INFO] AdjustPhi: 1.492 [ms]
[INFO] ConstrainPressure: 0.004 [ms]
[INFO] MatrixAssemblyPII: 3.995 [ms]
DICPCG:  Solving for p, Initial residual = 0.619775, Final residual = 9.57547e-05, No Iterations 314
[INFO] SolveP: 780.868 [ms]
time step continuity errors : sum local = 3.09872e-08, global = 3.2609e-22, cumulative = 3.01354e-21
[INFO] ContinuityError: 2.083 [ms]
[INFO] CorrectBoundary: 0.336 [ms]
[INFO] PISOStep: 806.631 [ms]
[INFO] TimeStep: 1769.79 [ms]
ExecutionTime = 3.79 s  ClockTime = 4 s

Time = 0.0015

Courant Number mean: 0.0324926 max: 0.441243
[INFO] MatrixAssemblyU: 10.173 [ms]
DILUPBiCGStab:  Solving for Ux, Initial residual = 0.0531065, Final residual = 0.000326436, No Iterations 5
DILUPBiCGStab:  Solving for Uy, Initial residual = 0.124692, Final residual = 0.000558083, No Iterations 5
DILUPBiCGStab:  Solving for Uz, Initial residual = 0.57486, Final residual = 0.00313204, No Iterations 5
[INFO] MomentumPredictor: 104.628 [ms]
[INFO] MatrixAssemblyPI: 10.995 [ms]
[INFO] AdjustPhi: 1.763 [ms]
[INFO] ConstrainPressure: 0.003 [ms]
[INFO] MatrixAssemblyPII: 3.309 [ms]
DICPCG:  Solving for p, Initial residual = 0.632522, Final residual = 9.87118e-05, No Iterations 140
[INFO] SolveP: 359.042 [ms]
time step continuity errors : sum local = 2.9702e-08, global = -6.4396e-22, cumulative = 2.36958e-21
[INFO] ContinuityError: 2.456 [ms]
[INFO] CorrectBoundary: 0.115 [ms]
[INFO] PISOStep: 383.153 [ms]
[INFO] MatrixAssemblyPI: 11.67 [ms]
[INFO] AdjustPhi: 2.203 [ms]
[INFO] ConstrainPressure: 0.003 [ms]
[INFO] MatrixAssemblyPII: 3.733 [ms]
DICPCG:  Solving for p, Initial residual = 0.580038, Final residual = 8.16793e-05, No Iterations 138
[INFO] SolveP: 348.076 [ms]
time step continuity errors : sum local = 2.0359e-08, global = -1.62189e-21, cumulative = 7.47681e-22
[INFO] ContinuityError: 1.721 [ms]
[INFO] CorrectBoundary: 0.086 [ms]
[INFO] PISOStep: 371.796 [ms]
[INFO] TimeStep: 872.022 [ms]
ExecutionTime = 4.66 s  ClockTime = 4 s

Time = 0.002

Courant Number mean: 0.0388943 max: 0.452945
[INFO] MatrixAssemblyU: 8.623 [ms]
DILUPBiCGStab:  Solving for Ux, Initial residual = 0.0318691, Final residual = 0.000167297, No Iterations 5
DILUPBiCGStab:  Solving for Uy, Initial residual = 0.0814682, Final residual = 0.000385186, No Iterations 5
DILUPBiCGStab:  Solving for Uz, Initial residual = 0.279075, Final residual = 0.00123013, No Iterations 5
[INFO] MomentumPredictor: 107.491 [ms]
[INFO] MatrixAssemblyPI: 12.841 [ms]
[INFO] AdjustPhi: 0.525 [ms]
[INFO] ConstrainPressure: 0.004 [ms]
[INFO] MatrixAssemblyPII: 3.223 [ms]
DICPCG:  Solving for p, Initial residual = 0.412662, Final residual = 9.84234e-05, No Iterations 139
[INFO] SolveP: 358.769 [ms]
time step continuity errors : sum local = 2.13871e-08, global = 8.56546e-22, cumulative = 1.60423e-21
[INFO] ContinuityError: 2.174 [ms]
[INFO] CorrectBoundary: 0.21 [ms]
[INFO] PISOStep: 382.12 [ms]
[INFO] MatrixAssemblyPI: 12.15 [ms]
[INFO] AdjustPhi: 1.618 [ms]
[INFO] ConstrainPressure: 0.004 [ms]
[INFO] MatrixAssemblyPII: 3.29 [ms]
DICPCG:  Solving for p, Initial residual = 0.350782, Final residual = 9.25792e-05, No Iterations 138
[INFO] SolveP: 355.563 [ms]
time step continuity errors : sum local = 1.86342e-08, global = 7.69464e-21, cumulative = 9.29887e-21
[INFO] ContinuityError: 1.815 [ms]
[INFO] CorrectBoundary: 0.079 [ms]
[INFO] PISOStep: 378.785 [ms]
[INFO] TimeStep: 878.972 [ms]
ExecutionTime = 5.53 s  ClockTime = 5 s

Time = 0.0025

Courant Number mean: 0.0439471 max: 0.459624
[INFO] MatrixAssemblyU: 8.244 [ms]
DILUPBiCGStab:  Solving for Ux, Initial residual = 0.0235242, Final residual = 0.000104889, No Iterations 5
DILUPBiCGStab:  Solving for Uy, Initial residual = 0.0515084, Final residual = 0.000235083, No Iterations 5
DILUPBiCGStab:  Solving for Uz, Initial residual = 0.10452, Final residual = 0.000531888, No Iterations 5
[INFO] MomentumPredictor: 106.934 [ms]
[INFO] MatrixAssemblyPI: 13.66 [ms]
[INFO] AdjustPhi: 0.61 [ms]
[INFO] ConstrainPressure: 0.003 [ms]
[INFO] MatrixAssemblyPII: 3.702 [ms]
DICPCG:  Solving for p, Initial residual = 0.315008, Final residual = 9.38568e-05, No Iterations 277
[INFO] SolveP: 708.221 [ms]
time step continuity errors : sum local = 1.5163e-08, global = -5.55426e-21, cumulative = 3.74461e-21
[INFO] ContinuityError: 2.365 [ms]
[INFO] CorrectBoundary: 0.904 [ms]
[INFO] PISOStep: 734.161 [ms]
[INFO] MatrixAssemblyPI: 11.627 [ms]
[INFO] AdjustPhi: 1.164 [ms]
[INFO] ConstrainPressure: 0.003 [ms]
[INFO] MatrixAssemblyPII: 3.299 [ms]
DICPCG:  Solving for p, Initial residual = 0.269478, Final residual = 9.82624e-05, No Iterations 276
[INFO] SolveP: 695.421 [ms]
time step continuity errors : sum local = 1.57599e-08, global = -1.44565e-21, cumulative = 2.29895e-21
[INFO] ContinuityError: 2.032 [ms]
[INFO] CorrectBoundary: 0.487 [ms]
[INFO] PISOStep: 718.903 [ms]
[INFO] TimeStep: 1570 [ms]
ExecutionTime = 7.1 s  ClockTime = 7 s

Time = 0.003

Courant Number mean: 0.0479872 max: 0.463868
[INFO] MatrixAssemblyU: 9.409 [ms]
DILUPBiCGStab:  Solving for Ux, Initial residual = 0.0178903, Final residual = 7.93512e-05, No Iterations 5
DILUPBiCGStab:  Solving for Uy, Initial residual = 0.0401401, Final residual = 0.00011599, No Iterations 5
DILUPBiCGStab:  Solving for Uz, Initial residual = 0.0880876, Final residual = 0.00041065, No Iterations 5
[INFO] MomentumPredictor: 103.842 [ms]
[INFO] MatrixAssemblyPI: 10.94 [ms]
[INFO] AdjustPhi: 0.966 [ms]
[INFO] ConstrainPressure: 0.003 [ms]
[INFO] MatrixAssemblyPII: 3.606 [ms]
DICPCG:  Solving for p, Initial residual = 0.197119, Final residual = 9.48219e-05, No Iterations 128
[INFO] SolveP: 340.38 [ms]
time step continuity errors : sum local = 1.50185e-08, global = 4.89133e-21, cumulative = 7.19028e-21
[INFO] ContinuityError: 2.154 [ms]
[INFO] CorrectBoundary: 1.153 [ms]
[INFO] PISOStep: 363.301 [ms]
[INFO] MatrixAssemblyPI: 11.381 [ms]
[INFO] AdjustPhi: 3.167 [ms]
[INFO] ConstrainPressure: 0.004 [ms]
[INFO] MatrixAssemblyPII: 3.285 [ms]
DICPCG:  Solving for p, Initial residual = 0.163893, Final residual = 9.60579e-05, No Iterations 127
[INFO] SolveP: 323.129 [ms]
time step continuity errors : sum local = 1.5229e-08, global = 9.31912e-21, cumulative = 1.65094e-20
[INFO] ContinuityError: 2.11 [ms]
[INFO] CorrectBoundary: 0.082 [ms]
[INFO] PISOStep: 348.446 [ms]
[INFO] TimeStep: 826.896 [ms]
ExecutionTime = 7.92 s  ClockTime = 8 s

Time = 0.0035

Courant Number mean: 0.051396 max: 0.466747
[INFO] MatrixAssemblyU: 9.322 [ms]
DILUPBiCGStab:  Solving for Ux, Initial residual = 0.0146332, Final residual = 5.75448e-05, No Iterations 5
DILUPBiCGStab:  Solving for Uy, Initial residual = 0.0317753, Final residual = 9.93238e-05, No Iterations 5
DILUPBiCGStab:  Solving for Uz, Initial residual = 0.057809, Final residual = 0.000251702, No Iterations 5
[INFO] MomentumPredictor: 108.3 [ms]
[INFO] MatrixAssemblyPI: 12.638 [ms]
[INFO] AdjustPhi: 1.371 [ms]
[INFO] ConstrainPressure: 0.003 [ms]
[INFO] MatrixAssemblyPII: 3.408 [ms]
DICPCG:  Solving for p, Initial residual = 0.139601, Final residual = 9.47572e-05, No Iterations 122
[INFO] SolveP: 310.223 [ms]
time step continuity errors : sum local = 1.61075e-08, global = 2.52559e-21, cumulative = 1.9035e-20
[INFO] ContinuityError: 1.809 [ms]
[INFO] CorrectBoundary: 0.085 [ms]
[INFO] PISOStep: 333.978 [ms]
[INFO] MatrixAssemblyPI: 10.586 [ms]
[INFO] AdjustPhi: 0.813 [ms]
[INFO] ConstrainPressure: 0.003 [ms]
[INFO] MatrixAssemblyPII: 3.435 [ms]
DICPCG:  Solving for p, Initial residual = 0.116709, Final residual = 9.8463e-05, No Iterations 120
[INFO] SolveP: 302.755 [ms]
time step continuity errors : sum local = 1.50826e-08, global = 9.25987e-21, cumulative = 2.82949e-20
[INFO] ContinuityError: 1.693 [ms]
[INFO] CorrectBoundary: 0.087 [ms]
[INFO] PISOStep: 323.5 [ms]
[INFO] TimeStep: 776.847 [ms]
ExecutionTime = 8.69 s  ClockTime = 8 s

Time = 0.004

Courant Number mean: 0.0543348 max: 0.468957
[INFO] MatrixAssemblyU: 8.087 [ms]
DILUPBiCGStab:  Solving for Ux, Initial residual = 0.0122727, Final residual = 4.51104e-05, No Iterations 5
DILUPBiCGStab:  Solving for Uy, Initial residual = 0.0265467, Final residual = 6.39411e-05, No Iterations 5
DILUPBiCGStab:  Solving for Uz, Initial residual = 0.0512242, Final residual = 0.000173705, No Iterations 5
[INFO] MomentumPredictor: 105.042 [ms]
[INFO] MatrixAssemblyPI: 11.01 [ms]
[INFO] AdjustPhi: 1.502 [ms]
[INFO] ConstrainPressure: 0.003 [ms]
[INFO] MatrixAssemblyPII: 3.228 [ms]
DICPCG:  Solving for p, Initial residual = 0.0909964, Final residual = 9.39075e-05, No Iterations 121
[INFO] SolveP: 307.776 [ms]
time step continuity errors : sum local = 1.49022e-08, global = 1.8107e-21, cumulative = 3.01056e-20
[INFO] ContinuityError: 1.729 [ms]
[INFO] CorrectBoundary: 0.067 [ms]
[INFO] PISOStep: 330.415 [ms]
[INFO] MatrixAssemblyPI: 12.279 [ms]
[INFO] AdjustPhi: 0.568 [ms]
[INFO] ConstrainPressure: 0.004 [ms]
[INFO] MatrixAssemblyPII: 3.33 [ms]
DICPCG:  Solving for p, Initial residual = 0.0752617, Final residual = 9.29444e-05, No Iterations 119
[INFO] SolveP: 307.355 [ms]
time step continuity errors : sum local = 1.39114e-08, global = 2.17645e-21, cumulative = 3.2282e-20
[INFO] ContinuityError: 2.477 [ms]
[INFO] CorrectBoundary: 0.25 [ms]
[INFO] PISOStep: 331.359 [ms]
[INFO] TimeStep: 776.709 [ms]
ExecutionTime = 9.47 s  ClockTime = 9 s

Time = 0.0045

Courant Number mean: 0.0569118 max: 0.470657
[INFO] MatrixAssemblyU: 8.31 [ms]
DILUPBiCGStab:  Solving for Ux, Initial residual = 0.0105341, Final residual = 3.57371e-05, No Iterations 5
DILUPBiCGStab:  Solving for Uy, Initial residual = 0.022677, Final residual = 5.88569e-05, No Iterations 5
DILUPBiCGStab:  Solving for Uz, Initial residual = 0.0436261, Final residual = 0.000132609, No Iterations 5
[INFO] MomentumPredictor: 106.154 [ms]
[INFO] MatrixAssemblyPI: 11.158 [ms]
[INFO] AdjustPhi: 0.847 [ms]
[INFO] ConstrainPressure: 0.003 [ms]
[INFO] MatrixAssemblyPII: 3.334 [ms]
DICPCG:  Solving for p, Initial residual = 0.0669959, Final residual = 9.87006e-05, No Iterations 124
[INFO] SolveP: 312.727 [ms]
time step continuity errors : sum local = 1.71625e-08, global = 4.59085e-23, cumulative = 3.23279e-20
[INFO] ContinuityError: 1.68 [ms]
[INFO] CorrectBoundary: 0.071 [ms]
[INFO] PISOStep: 333.96 [ms]
[INFO] MatrixAssemblyPI: 10.682 [ms]
[INFO] AdjustPhi: 1.107 [ms]
[INFO] ConstrainPressure: 0.003 [ms]
[INFO] MatrixAssemblyPII: 3.382 [ms]
DICPCG:  Solving for p, Initial residual = 0.0558892, Final residual = 9.54727e-05, No Iterations 120
[INFO] SolveP: 301.635 [ms]
time step continuity errors : sum local = 1.45464e-08, global = -1.16922e-21, cumulative = 3.11587e-20
[INFO] ContinuityError: 1.737 [ms]
[INFO] CorrectBoundary: 0.07 [ms]
[INFO] PISOStep: 322.809 [ms]
[INFO] TimeStep: 773.068 [ms]
ExecutionTime = 10.25 s  ClockTime = 10 s

Time = 0.005

Courant Number mean: 0.0592068 max: 0.472052
[INFO] MatrixAssemblyU: 8.15 [ms]
DILUPBiCGStab:  Solving for Ux, Initial residual = 0.00920899, Final residual = 3.00747e-05, No Iterations 5
DILUPBiCGStab:  Solving for Uy, Initial residual = 0.0197684, Final residual = 4.42265e-05, No Iterations 5
DILUPBiCGStab:  Solving for Uz, Initial residual = 0.0390266, Final residual = 0.000117409, No Iterations 5
[INFO] MomentumPredictor: 106.486 [ms]
[INFO] MatrixAssemblyPI: 11.119 [ms]
[INFO] AdjustPhi: 0.841 [ms]
[INFO] ConstrainPressure: 0.003 [ms]
[INFO] MatrixAssemblyPII: 3.2 [ms]
DICPCG:  Solving for p, Initial residual = 0.0449389, Final residual = 9.93571e-05, No Iterations 122
[INFO] SolveP: 305.258 [ms]
time step continuity errors : sum local = 1.68763e-08, global = 1.16382e-20, cumulative = 4.27969e-20
[INFO] ContinuityError: 1.666 [ms]
[INFO] CorrectBoundary: 0.081 [ms]
[INFO] PISOStep: 326.543 [ms]
[INFO] MatrixAssemblyPI: 10.481 [ms]
[INFO] AdjustPhi: 1.187 [ms]
[INFO] ConstrainPressure: 0.004 [ms]
[INFO] MatrixAssemblyPII: 3.401 [ms]
DICPCG:  Solving for p, Initial residual = 0.0379427, Final residual = 9.68885e-05, No Iterations 119
[INFO] SolveP: 300.483 [ms]
time step continuity errors : sum local = 1.45116e-08, global = -9.99027e-22, cumulative = 4.17979e-20
[INFO] ContinuityError: 2.314 [ms]
[INFO] CorrectBoundary: 0.179 [ms]
[INFO] PISOStep: 323.207 [ms]
[INFO] TimeStep: 766.139 [ms]
ExecutionTime = 11.01 s  ClockTime = 11 s

Time = 0.0055

Courant Number mean: 0.0612662 max: 0.473198
[INFO] MatrixAssemblyU: 9.343 [ms]
DILUPBiCGStab:  Solving for Ux, Initial residual = 0.00815152, Final residual = 2.52296e-05, No Iterations 5
DILUPBiCGStab:  Solving for Uy, Initial residual = 0.0174516, Final residual = 3.98361e-05, No Iterations 5
DILUPBiCGStab:  Solving for Uz, Initial residual = 0.035498, Final residual = 0.00010873, No Iterations 5
[INFO] MomentumPredictor: 104.811 [ms]
[INFO] MatrixAssemblyPI: 11.537 [ms]
[INFO] AdjustPhi: 0.821 [ms]
[INFO] ConstrainPressure: 0.003 [ms]
[INFO] MatrixAssemblyPII: 3.395 [ms]
DICPCG:  Solving for p, Initial residual = 0.0355209, Final residual = 9.88401e-05, No Iterations 266
[INFO] SolveP: 677.989 [ms]
time step continuity errors : sum local = 1.39175e-08, global = 1.55427e-21, cumulative = 4.33522e-20
[INFO] ContinuityError: 1.775 [ms]
[INFO] CorrectBoundary: 0.067 [ms]
[INFO] PISOStep: 699.699 [ms]
[INFO] MatrixAssemblyPI: 10.58 [ms]
[INFO] AdjustPhi: 1.69 [ms]
[INFO] ConstrainPressure: 0.003 [ms]
[INFO] MatrixAssemblyPII: 3.336 [ms]
DICPCG:  Solving for p, Initial residual = 0.0302029, Final residual = 9.98482e-05, No Iterations 265
[INFO] SolveP: 661.263 [ms]
time step continuity errors : sum local = 1.4068e-08, global = -1.45181e-21, cumulative = 4.19004e-20
[INFO] ContinuityError: 1.951 [ms]
[INFO] CorrectBoundary: 0.086 [ms]
[INFO] PISOStep: 683.363 [ms]
[INFO] TimeStep: 1499.31 [ms]
ExecutionTime = 12.5 s  ClockTime = 12 s

Time = 0.006

Courant Number mean: 0.0631376 max: 0.474176
[INFO] MatrixAssemblyU: 9.587 [ms]
DILUPBiCGStab:  Solving for Ux, Initial residual = 0.00728894, Final residual = 2.20997e-05, No Iterations 5
DILUPBiCGStab:  Solving for Uy, Initial residual = 0.0155861, Final residual = 3.40212e-05, No Iterations 5
DILUPBiCGStab:  Solving for Uz, Initial residual = 0.0311646, Final residual = 7.6771e-05, No Iterations 5
[INFO] MomentumPredictor: 104.027 [ms]
[INFO] MatrixAssemblyPI: 12.392 [ms]
[INFO] AdjustPhi: 1.547 [ms]
[INFO] ConstrainPressure: 0.004 [ms]
[INFO] MatrixAssemblyPII: 3.398 [ms]
DICPCG:  Solving for p, Initial residual = 0.0254708, Final residual = 9.74952e-05, No Iterations 112
[INFO] SolveP: 284.19 [ms]
time step continuity errors : sum local = 1.48063e-08, global = -1.153e-20, cumulative = 3.03704e-20
[INFO] ContinuityError: 2.238 [ms]
[INFO] CorrectBoundary: 1.027 [ms]
[INFO] PISOStep: 308.843 [ms]
[INFO] MatrixAssemblyPI: 11.16 [ms]
[INFO] AdjustPhi: 1.324 [ms]
[INFO] ConstrainPressure: 0.003 [ms]
[INFO] MatrixAssemblyPII: 3.416 [ms]
DICPCG:  Solving for p, Initial residual = 0.0222317, Final residual = 9.13317e-05, No Iterations 112
[INFO] SolveP: 284.997 [ms]
time step continuity errors : sum local = 1.32814e-08, global = 6.48853e-21, cumulative = 3.68589e-20
[INFO] ContinuityError: 1.78 [ms]
[INFO] CorrectBoundary: 0.09 [ms]
[INFO] PISOStep: 307.389 [ms]
[INFO] TimeStep: 731.656 [ms]
ExecutionTime = 13.23 s  ClockTime = 13 s

Time = 0.0065

Courant Number mean: 0.0648411 max: 0.47501
[INFO] MatrixAssemblyU: 8.261 [ms]
DILUPBiCGStab:  Solving for Ux, Initial residual = 0.00655954, Final residual = 1.91861e-05, No Iterations 5
DILUPBiCGStab:  Solving for Uy, Initial residual = 0.0140572, Final residual = 3.06004e-05, No Iterations 5
DILUPBiCGStab:  Solving for Uz, Initial residual = 0.0280633, Final residual = 6.64481e-05, No Iterations 5
[INFO] MomentumPredictor: 104.544 [ms]
[INFO] MatrixAssemblyPI: 11.021 [ms]
[INFO] AdjustPhi: 1.395 [ms]
[INFO] ConstrainPressure: 0.003 [ms]
[INFO] MatrixAssemblyPII: 3.198 [ms]
DICPCG:  Solving for p, Initial residual = 0.0209131, Final residual = 9.99595e-05, No Iterations 114
[INFO] SolveP: 296.592 [ms]
time step continuity errors : sum local = 1.58045e-08, global = -4.55921e-21, cumulative = 3.22997e-20
[INFO] ContinuityError: 1.669 [ms]
[INFO] CorrectBoundary: 0.086 [ms]
[INFO] PISOStep: 318.3 [ms]
[INFO] MatrixAssemblyPI: 10.556 [ms]
[INFO] AdjustPhi: 1.235 [ms]
[INFO] ConstrainPressure: 0.003 [ms]
[INFO] MatrixAssemblyPII: 3.293 [ms]
DICPCG:  Solving for p, Initial residual = 0.0184059, Final residual = 9.75004e-05, No Iterations 111
[INFO] SolveP: 286.424 [ms]
time step continuity errors : sum local = 1.40783e-08, global = -1.37607e-21, cumulative = 3.09237e-20
[INFO] ContinuityError: 1.727 [ms]
[INFO] CorrectBoundary: 0.088 [ms]
[INFO] PISOStep: 307.523 [ms]
[INFO] TimeStep: 740.364 [ms]
ExecutionTime = 13.96 s  ClockTime = 14 s

Time = 0.007

Courant Number mean: 0.0664084 max: 0.475741
[INFO] MatrixAssemblyU: 8.266 [ms]
DILUPBiCGStab:  Solving for Ux, Initial residual = 0.00595493, Final residual = 1.71816e-05, No Iterations 5
DILUPBiCGStab:  Solving for Uy, Initial residual = 0.0127804, Final residual = 2.75742e-05, No Iterations 5
DILUPBiCGStab:  Solving for Uz, Initial residual = 0.0257866, Final residual = 6.68979e-05, No Iterations 5
[INFO] MomentumPredictor: 106.88 [ms]
[INFO] MatrixAssemblyPI: 11.078 [ms]
[INFO] AdjustPhi: 0.696 [ms]
[INFO] ConstrainPressure: 0.004 [ms]
[INFO] MatrixAssemblyPII: 3.535 [ms]
DICPCG:  Solving for p, Initial residual = 0.016319, Final residual = 9.46672e-05, No Iterations 117
[INFO] SolveP: 302.089 [ms]
time step continuity errors : sum local = 1.54017e-08, global = 3.88423e-21, cumulative = 3.48079e-20
[INFO] ContinuityError: 1.689 [ms]
[INFO] CorrectBoundary: 0.075 [ms]
[INFO] PISOStep: 323.259 [ms]
[INFO] MatrixAssemblyPI: 10.671 [ms]
[INFO] AdjustPhi: 0.882 [ms]
[INFO] ConstrainPressure: 0.003 [ms]
[INFO] MatrixAssemblyPII: 3.305 [ms]
DICPCG:  Solving for p, Initial residual = 0.0147492, Final residual = 8.72068e-05, No Iterations 116
[INFO] SolveP: 296.866 [ms]
time step continuity errors : sum local = 1.29355e-08, global = -3.72438e-21, cumulative = 3.10835e-20
[INFO] ContinuityError: 2.28 [ms]
[INFO] CorrectBoundary: 0.112 [ms]
[INFO] PISOStep: 319.225 [ms]
[INFO] TimeStep: 759.412 [ms]
ExecutionTime = 14.73 s  ClockTime = 14 s

Time = 0.0075

Courant Number mean: 0.0678549 max: 0.476379
[INFO] MatrixAssemblyU: 8.821 [ms]
DILUPBiCGStab:  Solving for Ux, Initial residual = 0.00544418, Final residual = 1.53033e-05, No Iterations 5
DILUPBiCGStab:  Solving for Uy, Initial residual = 0.0116664, Final residual = 2.52723e-05, No Iterations 5
DILUPBiCGStab:  Solving for Uz, Initial residual = 0.0241798, Final residual = 6.6381e-05, No Iterations 5
[INFO] MomentumPredictor: 106.61 [ms]
[INFO] MatrixAssemblyPI: 11.274 [ms]
[INFO] AdjustPhi: 1.386 [ms]
[INFO] ConstrainPressure: 0.003 [ms]
[INFO] MatrixAssemblyPII: 3.278 [ms]
DICPCG:  Solving for p, Initial residual = 0.0145187, Final residual = 9.98686e-05, No Iterations 121
[INFO] SolveP: 316.085 [ms]
time step continuity errors : sum local = 1.71308e-08, global = 1.40087e-20, cumulative = 4.50922e-20
[INFO] ContinuityError: 1.664 [ms]
[INFO] CorrectBoundary: 0.092 [ms]
[INFO] PISOStep: 338.043 [ms]
[INFO] MatrixAssemblyPI: 10.477 [ms]
[INFO] AdjustPhi: 1.027 [ms]
[INFO] ConstrainPressure: 0.004 [ms]
[INFO] MatrixAssemblyPII: 3.465 [ms]
DICPCG:  Solving for p, Initial residual = 0.0132299, Final residual = 9.07713e-05, No Iterations 116
[INFO] SolveP: 290.703 [ms]
time step continuity errors : sum local = 1.35525e-08, global = 1.0144e-20, cumulative = 5.52363e-20
[INFO] ContinuityError: 1.727 [ms]
[INFO] CorrectBoundary: 0.087 [ms]
[INFO] PISOStep: 311.595 [ms]
[INFO] TimeStep: 767.07 [ms]
ExecutionTime = 15.49 s  ClockTime = 15 s

Time = 0.008

Courant Number mean: 0.0691918 max: 0.476948
[INFO] MatrixAssemblyU: 8.19 [ms]
DILUPBiCGStab:  Solving for Ux, Initial residual = 0.00498823, Final residual = 1.39003e-05, No Iterations 5
DILUPBiCGStab:  Solving for Uy, Initial residual = 0.0107522, Final residual = 2.33495e-05, No Iterations 5
DILUPBiCGStab:  Solving for Uz, Initial residual = 0.0224399, Final residual = 7.09811e-05, No Iterations 5
[INFO] MomentumPredictor: 104.983 [ms]
[INFO] MatrixAssemblyPI: 11.138 [ms]
[INFO] AdjustPhi: 1.074 [ms]
[INFO] ConstrainPressure: 0.004 [ms]
[INFO] MatrixAssemblyPII: 3.231 [ms]
DICPCG:  Solving for p, Initial residual = 0.0123522, Final residual = 9.54354e-05, No Iterations 247
[INFO] SolveP: 616.965 [ms]
time step continuity errors : sum local = 1.33477e-08, global = -3.42897e-21, cumulative = 5.18073e-20
[INFO] ContinuityError: 2.411 [ms]
[INFO] CorrectBoundary: 0.072 [ms]
[INFO] PISOStep: 639.193 [ms]
[INFO] MatrixAssemblyPI: 10.629 [ms]
[INFO] AdjustPhi: 2.933 [ms]
[INFO] ConstrainPressure: 0.003 [ms]
[INFO] MatrixAssemblyPII: 3.389 [ms]
DICPCG:  Solving for p, Initial residual = 0.0114635, Final residual = 9.55299e-05, No Iterations 246
[INFO] SolveP: 610.705 [ms]
time step continuity errors : sum local = 1.3367e-08, global = 5.29794e-21, cumulative = 5.71052e-20
[INFO] ContinuityError: 1.857 [ms]
[INFO] CorrectBoundary: 0.183 [ms]
[INFO] PISOStep: 635.052 [ms]
[INFO] TimeStep: 1389.18 [ms]
ExecutionTime = 16.87 s  ClockTime = 17 s

Time = 0.0085

Courant Number mean: 0.0704368 max: 0.477455
[INFO] MatrixAssemblyU: 9.509 [ms]
DILUPBiCGStab:  Solving for Ux, Initial residual = 0.00460288, Final residual = 1.25299e-05, No Iterations 5
DILUPBiCGStab:  Solving for Uy, Initial residual = 0.00990019, Final residual = 2.15756e-05, No Iterations 5
DILUPBiCGStab:  Solving for Uz, Initial residual = 0.0206161, Final residual = 5.13606e-05, No Iterations 5
[INFO] MomentumPredictor: 104.381 [ms]
[INFO] MatrixAssemblyPI: 11.068 [ms]
[INFO] AdjustPhi: 1.381 [ms]
[INFO] ConstrainPressure: 0.003 [ms]
[INFO] MatrixAssemblyPII: 3.298 [ms]
DICPCG:  Solving for p, Initial residual = 0.0111214, Final residual = 9.86625e-05, No Iterations 111
[INFO] SolveP: 282.476 [ms]
time step continuity errors : sum local = 1.58609e-08, global = -1.54069e-20, cumulative = 4.16984e-20
[INFO] ContinuityError: 1.645 [ms]
[INFO] CorrectBoundary: 0.083 [ms]
[INFO] PISOStep: 304.221 [ms]
[INFO] MatrixAssemblyPI: 10.397 [ms]
[INFO] AdjustPhi: 1.806 [ms]
[INFO] ConstrainPressure: 0.003 [ms]
[INFO] MatrixAssemblyPII: 3.331 [ms]
DICPCG:  Solving for p, Initial residual = 0.0103712, Final residual = 9.94412e-05, No Iterations 107
[INFO] SolveP: 272.373 [ms]
time step continuity errors : sum local = 1.46525e-08, global = 1.61962e-21, cumulative = 4.3318e-20
[INFO] ContinuityError: 1.712 [ms]
[INFO] CorrectBoundary: 0.084 [ms]
[INFO] PISOStep: 293.877 [ms]
[INFO] TimeStep: 713.851 [ms]
ExecutionTime = 17.59 s  ClockTime = 17 s

Time = 0.009

Courant Number mean: 0.0715997 max: 0.477912
[INFO] MatrixAssemblyU: 8.296 [ms]
DILUPBiCGStab:  Solving for Ux, Initial residual = 0.00425343, Final residual = 1.1443e-05, No Iterations 5
DILUPBiCGStab:  Solving for Uy, Initial residual = 0.00918528, Final residual = 1.96671e-05, No Iterations 5
DILUPBiCGStab:  Solving for Uz, Initial residual = 0.01882, Final residual = 5.02253e-05, No Iterations 5
[INFO] MomentumPredictor: 102.9 [ms]
[INFO] MatrixAssemblyPI: 11.239 [ms]
[INFO] AdjustPhi: 0.737 [ms]
[INFO] ConstrainPressure: 0.004 [ms]
[INFO] MatrixAssemblyPII: 3.199 [ms]
DICPCG:  Solving for p, Initial residual = 0.00989261, Final residual = 9.67695e-05, No Iterations 112
[INFO] SolveP: 288.806 [ms]
time step continuity errors : sum local = 1.53568e-08, global = 2.69868e-21, cumulative = 4.60167e-20
[INFO] ContinuityError: 1.698 [ms]
[INFO] CorrectBoundary: 0.075 [ms]
[INFO] PISOStep: 310.084 [ms]
[INFO] MatrixAssemblyPI: 10.457 [ms]
[INFO] AdjustPhi: 1.37 [ms]
[INFO] ConstrainPressure: 0.004 [ms]
[INFO] MatrixAssemblyPII: 3.253 [ms]
DICPCG:  Solving for p, Initial residual = 0.00929632, Final residual = 9.38701e-05, No Iterations 110
[INFO] SolveP: 281.858 [ms]
time step continuity errors : sum local = 1.35138e-08, global = -3.47819e-21, cumulative = 4.25385e-20
[INFO] ContinuityError: 1.754 [ms]
[INFO] CorrectBoundary: 0.093 [ms]
[INFO] PISOStep: 303.04 [ms]
[INFO] TimeStep: 726.098 [ms]
ExecutionTime = 18.31 s  ClockTime = 18 s

Time = 0.0095

Courant Number mean: 0.0726862 max: 0.478326
[INFO] MatrixAssemblyU: 7.999 [ms]
DILUPBiCGStab:  Solving for Ux, Initial residual = 0.0039585, Final residual = 1.04827e-05, No Iterations 5
DILUPBiCGStab:  Solving for Uy, Initial residual = 0.00852414, Final residual = 1.83728e-05, No Iterations 5
DILUPBiCGStab:  Solving for Uz, Initial residual = 0.0180219, Final residual = 5.1873e-05, No Iterations 5
[INFO] MomentumPredictor: 107.306 [ms]
[INFO] MatrixAssemblyPI: 11.145 [ms]
[INFO] AdjustPhi: 0.804 [ms]
[INFO] ConstrainPressure: 0.003 [ms]
[INFO] MatrixAssemblyPII: 3.278 [ms]
DICPCG:  Solving for p, Initial residual = 0.00919929, Final residual = 9.88829e-05, No Iterations 259
[INFO] SolveP: 634.018 [ms]
time step continuity errors : sum local = 1.38295e-08, global = -4.6805e-21, cumulative = 3.7858e-20
[INFO] ContinuityError: 1.665 [ms]
[INFO] CorrectBoundary: 0.091 [ms]
[INFO] PISOStep: 655.273 [ms]
[INFO] MatrixAssemblyPI: 10.457 [ms]
[INFO] AdjustPhi: 1.108 [ms]
[INFO] ConstrainPressure: 0.003 [ms]
[INFO] MatrixAssemblyPII: 3.52 [ms]
DICPCG:  Solving for p, Initial residual = 0.00869023, Final residual = 9.10159e-05, No Iterations 259
[INFO] SolveP: 660.059 [ms]
time step continuity errors : sum local = 1.27343e-08, global = 8.26297e-21, cumulative = 4.61209e-20
[INFO] ContinuityError: 2.194 [ms]
[INFO] CorrectBoundary: 0.092 [ms]
[INFO] PISOStep: 682.827 [ms]
[INFO] TimeStep: 1455.13 [ms]
ExecutionTime = 19.76 s  ClockTime = 20 s

Time = 0.01

Courant Number mean: 0.0737032 max: 0.478702
[INFO] MatrixAssemblyU: 9.145 [ms]
DILUPBiCGStab:  Solving for Ux, Initial residual = 0.0036817, Final residual = 9.65502e-06, No Iterations 5
DILUPBiCGStab:  Solving for Uy, Initial residual = 0.00795101, Final residual = 1.70239e-05, No Iterations 5
DILUPBiCGStab:  Solving for Uz, Initial residual = 0.0164705, Final residual = 3.8197e-05, No Iterations 5
[INFO] MomentumPredictor: 103.577 [ms]
[INFO] MatrixAssemblyPI: 11.613 [ms]
[INFO] AdjustPhi: 0.964 [ms]
[INFO] ConstrainPressure: 0.003 [ms]
[INFO] MatrixAssemblyPII: 3.395 [ms]
DICPCG:  Solving for p, Initial residual = 0.00870798, Final residual = 9.15746e-05, No Iterations 107
[INFO] SolveP: 271.535 [ms]
time step continuity errors : sum local = 1.37595e-08, global = -1.13593e-20, cumulative = 3.47617e-20
[INFO] ContinuityError: 1.72 [ms]
[INFO] CorrectBoundary: 0.088 [ms]
[INFO] PISOStep: 293.535 [ms]
[INFO] MatrixAssemblyPI: 10.581 [ms]
[INFO] AdjustPhi: 1.043 [ms]
[INFO] ConstrainPressure: 0.003 [ms]
[INFO] MatrixAssemblyPII: 3.41 [ms]
DICPCG:  Solving for p, Initial residual = 0.00823443, Final residual = 9.67818e-05, No Iterations 106
[INFO] SolveP: 274.94 [ms]
time step continuity errors : sum local = 1.39224e-08, global = 5.31076e-22, cumulative = 3.52927e-20
[INFO] ContinuityError: 1.673 [ms]
[INFO] CorrectBoundary: 0.093 [ms]
[INFO] PISOStep: 296.016 [ms]
[INFO] TimeStep: 704.051 [ms]
ExecutionTime = 20.46 s  ClockTime = 20 s

End

Finalising parallel run
