/*---------------------------------------------------------------------------*\
| =========                 |                                                 |
| \\      /  F ield         | OpenFOAM: The Open Source CFD Toolbox           |
|  \\    /   O peration     | Version:  2212                                  |
|   \\  /    A nd           | Website:  www.openfoam.com                      |
|    \\/     M anipulation  |                                                 |
\*---------------------------------------------------------------------------*/
Build  : 5614a57-20230228 OPENFOAM=2212 patch=230110 version=v2212
Arch   : "LSB;label=32;scalar=64"
Exec   : icoFoam -parallel -case /home/greole/data/code/exasim-project/micro_benchmarks/LidDrivenCavity3D/workspace/e10cc5f04c82157eb7bfe9534fadb9ab/case
Date   : Jun 30 2023
Time   : 09:15:40
Host   : guyot
PID    : 1556762
I/O    : uncollated
Case   : /home/greole/data/code/exasim-project/micro_benchmarks/LidDrivenCavity3D/workspace/e10cc5f04c82157eb7bfe9534fadb9ab/case
nProcs : 32
Hosts  :
(
    (guyot 32)
)
Pstream initialized with:
    floatTransfer      : 0
    nProcsSimpleSum    : 0
    commsType          : nonBlocking
    polling iterations : 0
trapFpe: Floating point exception trapping enabled (FOAM_SIGFPE).
fileModificationChecking : Monitoring run-time modified files using timeStampMaster (fileModificationSkew 5, maxFileModificationPolls 20)
allowSystemOperations : Allowing user-supplied system call operations

// * * * * * * * * * * * * * * * * * * * * * * * * * * * * * * * * * * * * * //
Create time

--> FOAM Warning : 
    From void* Foam::dlLibraryTable::openLibrary(const Foam::fileName&, bool)
    in file db/dynamicLibrary/dlLibraryTable/dlLibraryTable.C at line 188
    Could not load "libpetscFoam.so"
libpetscFoam.so: cannot open shared object file: No such file or directory
Create mesh for time = 0


PISO: Operating solver in PISO mode

Reading transportProperties

Reading field p

Reading field U

Reading/calculating face flux field phi


Starting time loop

Time = 0.00025

Courant Number mean: 8.24341e-18 max: 2.08167e-14
DILUPBiCGStab:  Solving for Ux, Initial residual = 1, Final residual = 0.00994539, No Iterations 5
DILUPBiCGStab:  Solving for Uy:  solution singularity
DILUPBiCGStab:  Solving for Uz:  solution singularity
[OGL LOG][lduLduBase.H:121] Initialising OGL
	OGL commit:  e496ca7+
	Branch: cyclic-fix-asym 
	Build type: Debug
	Ginkgo version: 1.5.0 ( develop)
	Ginkgo commit: 4292ffdee
	MPI is GPU aware: 1
	Forces host buffer based communication: 1
	CPU ranks per GPU: 1
	Matrix format: Coo
	End OGL_INFO
 cuda init
 device_id 0
 cuda init
 device_id 1
 num devices  get__num_devices 
 cuda init
 device_id 2
 num devices  get__num_devices 
 cuda init
 device_id 3
 num devices  get__num_devices 
 cuda init
 device_id 12
 num devices  get__num_devices 
 cuda init
 device_id 13
 num devices  get__num_devices 
 cuda init
 device_id 14
 num devices  get__num_devices 
 cuda init
 device_id 15
 num devices  get__num_devices 
 num devices  get__num_devices 
 cuda init
 device_id 8
 num devices  get__num_devices 
 cuda init
 device_id 9
 num devices  get__num_devices 
 cuda init
 device_id 10
 num devices  get__num_devices 
 cuda init
 device_id 11
 num devices  get__num_devices 
 cuda init
 device_id 28
 num devices  get__num_devices 
 cuda init
 device_id 29
 num devices  get__num_devices 
 cuda init
 device_id 30
 num devices  get__num_devices 
 cuda init
 device_id 31
 num devices  get__num_devices 
 cuda init
 device_id 16
 num devices  get__num_devices 
 cuda init
 device_id 17
 num devices  get__num_devices 
 cuda init
 device_id 18
 num devices  get__num_devices 
 cuda init
 device_id 19
 num devices  get__num_devices 
 cuda init
 device_id 24
 num devices  get__num_devices 
 cuda init
 device_id 25
 num devices  get__num_devices 
 cuda init
 device_id 26
 num devices  get__num_devices 
 cuda init
 device_id 27
 num devices  get__num_devices 
 cuda init
 device_id 4
 num devices  get__num_devices 
 cuda init
 device_id 5
 num devices  get__num_devices 
 cuda init
 device_id 6
 num devices  get__num_devices 
 cuda init
 device_id 7
 num devices  get__num_devices 
 cuda init
 device_id 20
 num devices  get__num_devices 
 cuda init
 device_id 21
 num devices  get__num_devices 
 cuda init
 device_id 22
 num devices  get__num_devices 
 cuda init
 device_id 23
 num devices  get__num_devices 
 8
 get__num_devices 
  get__num_devices 
 8
 get__num_devices 
  get__num_devices 
 8
 get__num_devices 
  get__num_devices 
 8
 get__num_devices 
  get__num_devices 
 8
 get__num_devices 
  get__num_devices 
 8
 get__num_devices 
  get__num_devices 
 8
 get__num_devices 
  get__num_devices 
 8
 get__num_devices 
  get__num_devices 
  get__num_devices 
  get__num_devices 
 8
 get__num_devices 
  get__num_devices 
 8
 get__num_devices 
  get__num_devices 
 8
 get__num_devices 
  get__num_devices 
 8
 get__num_devices 
  get__num_devices 
 8
 get__num_devices 
  get__num_devices 
 8
 get__num_devices 
  get__num_devices 
 8
 get__num_devices 
  get__num_devices 
 8
 get__num_devices 
  get__num_devices 
 8
 get__num_devices 
  get__num_devices 
 8
 get__num_devices 
  get__num_devices 
 8
 get__num_devices 
  get__num_devices 
  get__num_devices 
  get__num_devices 
 8
 get__num_devices 
  get__num_devices 
 8
 get__num_devices 
  get__num_devices 
  get__num_devices 
  get__num_devices 
 8
 get__num_devices 
  get__num_devices 
 8
 get__num_devices 
  get__num_devices 
 8
 get__num_devices 
  get__num_devices 
 8
 get__num_devices 
  get__num_devices 
 8
 get__num_devices 
  get__num_devices 
 8
 get__num_devices 
  get__num_devices 
 8
 get__num_devices 
  get__num_devices 
 8
 get__num_devices 
  get__num_devices 
 8
 get__num_devices 
  get__num_devices 
  get__num_devices 
  get__num_devices 
 8
 get__num_devices 
  get__num_devices 
 8
 get__num_devices 
  get__num_devices 
  get__num_devices 
  get__num_devices 
  get__num_devices 
  get__num_devices 
  get__num_devices 
  get__num_devices 
  get__num_devices 
  get__num_devices 
  get__num_devices 
  get__num_devices 
  get__num_devices 
  get__num_devices 
  get__num_devices 
  get__num_devices 
  get__num_devices 
  get__num_devices 
  get__num_devices 
  get__num_devices 
  get__num_devices 
  get__num_devices 
  get__num_devices 
  get__num_devices 
  get__num_devices 
  get__num_devices 
  get__num_devices 
  get__num_devices 
  get__num_devices 
  get__num_devices 
  get__num_devices 
  get__num_devices 
  get__num_devices 
  get__num_devices 
  get__num_devices 
  get__num_devices 
  get__num_devices 
  get__num_devices 
  get__num_devices 
  get__num_devices 
  get__num_devices 
  get__num_devices 
  get__num_devices 
  get__num_devices 
  get__num_devices 
  get__num_devices 
  get__num_devices 
  get__num_devices 
  get__num_devices 
  get__num_devices 
  get__num_devices 
  get__num_devices 
  get__num_devices 
  get__num_devices 
  get__num_devices 
  get__num_devices 
  get__num_devices 
  get__num_devices 
 [OGL LOG][Proc: 0]: global_index_init: 3880.66 [ms]
[OGL LOG][Proc: 0]p_local_cols: call_init: 0.649 [ms]
[OGL LOG][Proc: 0]p_local_rows: call_init: 0.014 [ms]
[OGL LOG][Proc: 0]p_local_ldu_map: call_init: 0.013 [ms]
[OGL LOG][Proc: 0]p_local_coeffs: call_init: 0.313 [ms]
[OGL LOG][Proc: 0]p_non_local_cols: call_init: 0.008 [ms]
[OGL LOG][Proc: 0]p_non_local_rows: call_init: 0.005 [ms]
[OGL LOG][Proc: 0]p_non_local_ldu_map: call_init: 0.006 [ms]
[OGL LOG][Proc: 0]p_non_local_coeffs: call_init: 0.006 [ms]
local_interface_nnzs01[OGL LOG][Proc: 0]p: init_local_sparsity_pattern: 340.72 [ms]
[OGL LOG][Proc: 0]p: init_non_local_sparsity_pattern: 84.707 [ms]
[OGL LOG][Proc: 0]p: update_local_matrix_data: 15.398 [ms]
[OGL LOG][Proc: 0]p: update_non_local_matrix_data: 23.712 [ms]
[OGL LOG][Proc: 0]device_partition: call_init: 13.292 [ms]
[OGL LOG][Proc: 0]p_matrix: call_init: 144.335 [ms]
[OGL LOG][Proc: 0]p_rhs: call_init: 6.419 [ms]
[OGL LOG][Proc: 0]p_solution: call_init: 2.54 [ms]
[OGL LOG][Proc: 0]p: init_precond: 0.236 [ms]
[OGL LOG][StoppingCriterion.H:372] Creating stopping criterion with minIter 0 frequency 1
[OGL LOG][Proc: 0]p: generate_solver: 1.164 [ms]
[OGL LOG][Proc: 0]p: solve: 12183.3 [ms]
[OGL LOG][Proc: 0]p: copy_x_back: 4.118 [ms]
[OGL LOG][lduLduBase.H:319] 
Statistics:
	Time per iteration: 7562 [mu s]
	Time per residual norm calculation: 2163.000000 [mu s]
	Time per iteration and DOF: 0.945250 [ns]
	Retrieve results bandwith 0.485000 [GByte/s]
[OGL LOG][Proc: 0]p: solve_multi_gpu: 12378.7 [ms]
nonecudaGKOCG:  Solving for p, Initial residual = 1, Final residual = 9.86263e-05, No Iterations 1611
time step continuity errors : sum local = 7.57108e-09, global = 1.3226e-21, cumulative = 1.3226e-21
[OGL LOG][Proc: 0]: global_index_init: 0.649 [ms]
[OGL LOG][Proc: 0]p_local_coeffs: call_update: 0.004 [ms]
[OGL LOG][Proc: 0]p_non_local_coeffs: call_update: 0 [ms]
local_interface_nnzs01[OGL LOG][Proc: 0]p: update_local_matrix_data: 41.361 [ms]
[OGL LOG][Proc: 0]p: update_non_local_matrix_data: 0.581 [ms]
[OGL LOG][Proc: 0]p_matrix: call_update: 8.831 [ms]
[OGL LOG][Proc: 0]p_rhs: call_update: 19.602 [ms]
[OGL LOG][Proc: 0]p: init_precond: 0.111 [ms]
[OGL LOG][StoppingCriterion.H:372] Creating stopping criterion with minIter 966 frequency 14
[OGL LOG][Proc: 0]p: generate_solver: 0.024 [ms]
[OGL LOG][Proc: 0]p: solve: 8270.67 [ms]
[OGL LOG][Proc: 0]p: copy_x_back: 2.551 [ms]
[OGL LOG][lduLduBase.H:319] 
Statistics:
	Time per iteration: 5178 [mu s]
	Time per residual norm calculation: 2114.000000 [mu s]
	Time per iteration and DOF: 0.647250 [ns]
	Retrieve results bandwith 0.784000 [GByte/s]
[OGL LOG][Proc: 0]p: solve_multi_gpu: 8323.34 [ms]
nonecudaGKOCG:  Solving for p, Initial residual = 0.786384, Final residual = 8.85474e-05, No Iterations 1597
time step continuity errors : sum local = 8.49664e-09, global = -7.56321e-22, cumulative = 5.66276e-22
ExecutionTime = 36.06 s  ClockTime = 66 s

Time = 0.0005

Courant Number mean: 0.0159459 max: 0.412549
DILUPBiCGStab:  Solving for Ux, Initial residual = 0.129572, Final residual = 0.00567036, No Iterations 5
DILUPBiCGStab:  Solving for Uy, Initial residual = 0.426966, Final residual = 0.015007, No Iterations 5
DILUPBiCGStab:  Solving for Uz, Initial residual = 0.987079, Final residual = 0.0372869, No Iterations 5
[OGL LOG][Proc: 0]: global_index_init: 0.724 [ms]
[OGL LOG][Proc: 0]p_local_coeffs: call_update: 0 [ms]
[OGL LOG][Proc: 0]p_non_local_coeffs: call_update: 0 [ms]
local_interface_nnzs01[OGL LOG][Proc: 0]p: update_local_matrix_data: 41.655 [ms]
[OGL LOG][Proc: 0]p: update_non_local_matrix_data: 0.638 [ms]
[OGL LOG][Proc: 0]p_matrix: call_update: 14.858 [ms]
[OGL LOG][Proc: 0]p_rhs: call_update: 13.443 [ms]
[OGL LOG][Proc: 0]p: init_precond: 0.033 [ms]
[OGL LOG][StoppingCriterion.H:372] Creating stopping criterion with minIter 958 frequency 17
[OGL LOG][Proc: 0]p: generate_solver: 0.027 [ms]
[OGL LOG][Proc: 0]p: solve: 8210.42 [ms]
[OGL LOG][Proc: 0]p: copy_x_back: 2.885 [ms]
[OGL LOG][lduLduBase.H:319] 
Statistics:
	Time per iteration: 5189 [mu s]
	Time per residual norm calculation: 2110.000000 [mu s]
	Time per iteration and DOF: 0.648625 [ns]
	Retrieve results bandwith 0.693000 [GByte/s]
[OGL LOG][Proc: 0]p: solve_multi_gpu: 8260.58 [ms]
nonecudaGKOCG:  Solving for p, Initial residual = 0.827607, Final residual = 8.44338e-05, No Iterations 1582
time step continuity errors : sum local = 1.26151e-08, global = -1.32916e-21, cumulative = -7.62887e-22
[OGL LOG][Proc: 0]: global_index_init: 0.219 [ms]
[OGL LOG][Proc: 0]p_local_coeffs: call_update: 0 [ms]
[OGL LOG][Proc: 0]p_non_local_coeffs: call_update: 0 [ms]
local_interface_nnzs01[OGL LOG][Proc: 0]p: update_local_matrix_data: 41.124 [ms]
[OGL LOG][Proc: 0]p: update_non_local_matrix_data: 0.621 [ms]
[OGL LOG][Proc: 0]p_matrix: call_update: 8.615 [ms]
[OGL LOG][Proc: 0]p_rhs: call_update: 19.327 [ms]
[OGL LOG][Proc: 0]p: init_precond: 0.035 [ms]
[OGL LOG][StoppingCriterion.H:372] Creating stopping criterion with minIter 949 frequency 17
[OGL LOG][Proc: 0]p: generate_solver: 0.026 [ms]
[OGL LOG][Proc: 0]p: solve: 8110.59 [ms]
[OGL LOG][Proc: 0]p: copy_x_back: 3.202 [ms]
[OGL LOG][lduLduBase.H:319] 
Statistics:
	Time per iteration: 5182 [mu s]
	Time per residual norm calculation: 2253.000000 [mu s]
	Time per iteration and DOF: 0.647750 [ns]
	Retrieve results bandwith 0.624000 [GByte/s]
[OGL LOG][Proc: 0]p: solve_multi_gpu: 8162.72 [ms]
nonecudaGKOCG:  Solving for p, Initial residual = 0.770569, Final residual = 9.39308e-05, No Iterations 1565
time step continuity errors : sum local = 1.42919e-08, global = -6.88395e-22, cumulative = -1.45128e-21
ExecutionTime = 55.25 s  ClockTime = 85 s

Time = 0.00075

Courant Number mean: 0.0243223 max: 0.472079
DILUPBiCGStab:  Solving for Ux, Initial residual = 0.0547811, Final residual = 0.00194224, No Iterations 5
DILUPBiCGStab:  Solving for Uy, Initial residual = 0.182464, Final residual = 0.00797734, No Iterations 5
DILUPBiCGStab:  Solving for Uz, Initial residual = 0.809634, Final residual = 0.0257678, No Iterations 5
[OGL LOG][Proc: 0]: global_index_init: 0.16 [ms]
[OGL LOG][Proc: 0]p_local_coeffs: call_update: 0 [ms]
[OGL LOG][Proc: 0]p_non_local_coeffs: call_update: 0 [ms]
local_interface_nnzs01[OGL LOG][Proc: 0]p: update_local_matrix_data: 40.992 [ms]
[OGL LOG][Proc: 0]p: update_non_local_matrix_data: 0.684 [ms]
[OGL LOG][Proc: 0]p_matrix: call_update: 8.868 [ms]
[OGL LOG][Proc: 0]p_rhs: call_update: 19.159 [ms]
[OGL LOG][Proc: 0]p: init_precond: 0.035 [ms]
[OGL LOG][StoppingCriterion.H:372] Creating stopping criterion with minIter 939 frequency 17
[OGL LOG][Proc: 0]p: generate_solver: 0.025 [ms]
[OGL LOG][Proc: 0]p: solve: 8217.67 [ms]
[OGL LOG][Proc: 0]p: copy_x_back: 1.359 [ms]
[OGL LOG][lduLduBase.H:319] 
Statistics:
	Time per iteration: 5194 [mu s]
	Time per residual norm calculation: 2113.000000 [mu s]
	Time per iteration and DOF: 0.649250 [ns]
	Retrieve results bandwith 1.471000 [GByte/s]
[OGL LOG][Proc: 0]p: solve_multi_gpu: 8266.92 [ms]
nonecudaGKOCG:  Solving for p, Initial residual = 0.849866, Final residual = 6.97459e-05, No Iterations 1582
time step continuity errors : sum local = 9.42366e-09, global = 5.63436e-22, cumulative = -8.87846e-22
[OGL LOG][Proc: 0]: global_index_init: 0.307 [ms]
[OGL LOG][Proc: 0]p_local_coeffs: call_update: 0 [ms]
[OGL LOG][Proc: 0]p_non_local_coeffs: call_update: 0 [ms]
local_interface_nnzs01[OGL LOG][Proc: 0]p: update_local_matrix_data: 41.232 [ms]
[OGL LOG][Proc: 0]p: update_non_local_matrix_data: 0.56 [ms]
[OGL LOG][Proc: 0]p_matrix: call_update: 9.304 [ms]
[OGL LOG][Proc: 0]p_rhs: call_update: 18.443 [ms]
[OGL LOG][Proc: 0]p: init_precond: 0.036 [ms]
[OGL LOG][StoppingCriterion.H:372] Creating stopping criterion with minIter 949 frequency 17
[OGL LOG][Proc: 0]p: generate_solver: 0.026 [ms]
[OGL LOG][Proc: 0]p: solve: 8179.77 [ms]
[OGL LOG][Proc: 0]p: copy_x_back: 3.107 [ms]
[OGL LOG][lduLduBase.H:319] 
Statistics:
	Time per iteration: 5170 [mu s]
	Time per residual norm calculation: 2108.000000 [mu s]
	Time per iteration and DOF: 0.646250 [ns]
	Retrieve results bandwith 0.643000 [GByte/s]
[OGL LOG][Proc: 0]p: solve_multi_gpu: 8231.72 [ms]
nonecudaGKOCG:  Solving for p, Initial residual = 0.816061, Final residual = 6.4925e-05, No Iterations 1582
time step continuity errors : sum local = 8.5805e-09, global = -4.83174e-22, cumulative = -1.37102e-21
ExecutionTime = 74.51 s  ClockTime = 105 s

Time = 0.001

Courant Number mean: 0.0291859 max: 0.467741
DILUPBiCGStab:  Solving for Ux, Initial residual = 0.0347122, Final residual = 0.00129449, No Iterations 5
DILUPBiCGStab:  Solving for Uy, Initial residual = 0.12921, Final residual = 0.00499183, No Iterations 5
DILUPBiCGStab:  Solving for Uz, Initial residual = 0.611946, Final residual = 0.0158765, No Iterations 5
[OGL LOG][Proc: 0]: global_index_init: 0.24 [ms]
[OGL LOG][Proc: 0]p_local_coeffs: call_update: 0 [ms]
[OGL LOG][Proc: 0]p_non_local_coeffs: call_update: 0 [ms]
local_interface_nnzs01[OGL LOG][Proc: 0]p: update_local_matrix_data: 41.313 [ms]
[OGL LOG][Proc: 0]p: update_non_local_matrix_data: 0.577 [ms]
[OGL LOG][Proc: 0]p_matrix: call_update: 9.09 [ms]
[OGL LOG][Proc: 0]p_rhs: call_update: 18.92 [ms]
[OGL LOG][Proc: 0]p: init_precond: 0.039 [ms]
[OGL LOG][StoppingCriterion.H:372] Creating stopping criterion with minIter 949 frequency 17
[OGL LOG][Proc: 0]p: generate_solver: 0.026 [ms]
[OGL LOG][Proc: 0]p: solve: 4961.01 [ms]
[OGL LOG][Proc: 0]p: copy_x_back: 1.542 [ms]
[OGL LOG][lduLduBase.H:319] 
Statistics:
	Time per iteration: 5205 [mu s]
	Time per residual norm calculation: 2110.000000 [mu s]
	Time per iteration and DOF: 0.650625 [ns]
	Retrieve results bandwith 1.297000 [GByte/s]
[OGL LOG][Proc: 0]p: solve_multi_gpu: 5011.57 [ms]
nonecudaGKOCG:  Solving for p, Initial residual = 0.77274, Final residual = 4.59408e-05, No Iterations 953
time step continuity errors : sum local = 6.10592e-09, global = -2.52223e-21, cumulative = -3.89325e-21
[OGL LOG][Proc: 0]: global_index_init: 0.073 [ms]
[OGL LOG][Proc: 0]p_local_coeffs: call_update: 0 [ms]
[OGL LOG][Proc: 0]p_non_local_coeffs: call_update: 0 [ms]
local_interface_nnzs01[OGL LOG][Proc: 0]p: update_local_matrix_data: 41.142 [ms]
[OGL LOG][Proc: 0]p: update_non_local_matrix_data: 0.644 [ms]
[OGL LOG][Proc: 0]p_matrix: call_update: 8.671 [ms]
[OGL LOG][Proc: 0]p_rhs: call_update: 18.595 [ms]
[OGL LOG][Proc: 0]p: init_precond: 0.035 [ms]
[OGL LOG][StoppingCriterion.H:372] Creating stopping criterion with minIter 571 frequency 13
[OGL LOG][Proc: 0]p: generate_solver: 0.026 [ms]
[OGL LOG][Proc: 0]p: solve: 4023.37 [ms]
[OGL LOG][Proc: 0]p: copy_x_back: 3.137 [ms]
[OGL LOG][lduLduBase.H:319] 
Statistics:
	Time per iteration: 5238 [mu s]
	Time per residual norm calculation: 2116.000000 [mu s]
	Time per iteration and DOF: 0.654750 [ns]
	Retrieve results bandwith 0.637000 [GByte/s]
[OGL LOG][Proc: 0]p: solve_multi_gpu: 4074.05 [ms]
nonecudaGKOCG:  Solving for p, Initial residual = 0.709933, Final residual = 7.66574e-05, No Iterations 768
time step continuity errors : sum local = 9.71609e-09, global = -2.14126e-21, cumulative = -6.03451e-21
ExecutionTime = 86.39 s  ClockTime = 117 s

Time = 0.00125

Courant Number mean: 0.0333261 max: 0.472981
DILUPBiCGStab:  Solving for Ux, Initial residual = 0.0271466, Final residual = 0.000948547, No Iterations 5
DILUPBiCGStab:  Solving for Uy, Initial residual = 0.0815433, Final residual = 0.00370084, No Iterations 5
DILUPBiCGStab:  Solving for Uz, Initial residual = 0.46448, Final residual = 0.0121793, No Iterations 5
[OGL LOG][Proc: 0]: global_index_init: 0.09 [ms]
[OGL LOG][Proc: 0]p_local_coeffs: call_update: 0 [ms]
[OGL LOG][Proc: 0]p_non_local_coeffs: call_update: 0 [ms]
local_interface_nnzs01[OGL LOG][Proc: 0]p: update_local_matrix_data: 41.203 [ms]
[OGL LOG][Proc: 0]p: update_non_local_matrix_data: 0.596 [ms]
[OGL LOG][Proc: 0]p_matrix: call_update: 9.378 [ms]
[OGL LOG][Proc: 0]p_rhs: call_update: 18.226 [ms]
[OGL LOG][Proc: 0]p: init_precond: 0.034 [ms]
[OGL LOG][StoppingCriterion.H:372] Creating stopping criterion with minIter 460 frequency 12
[OGL LOG][Proc: 0]p: generate_solver: 0.026 [ms]
[OGL LOG][Proc: 0]p: solve: 3970.67 [ms]
[OGL LOG][Proc: 0]p: copy_x_back: 2.109 [ms]
[OGL LOG][lduLduBase.H:319] 
Statistics:
	Time per iteration: 5329 [mu s]
	Time per residual norm calculation: 2110.000000 [mu s]
	Time per iteration and DOF: 0.666125 [ns]
	Retrieve results bandwith 0.948000 [GByte/s]
[OGL LOG][Proc: 0]p: solve_multi_gpu: 4020.73 [ms]
nonecudaGKOCG:  Solving for p, Initial residual = 0.77724, Final residual = 9.20742e-05, No Iterations 745
time step continuity errors : sum local = 9.52684e-09, global = -1.77833e-21, cumulative = -7.81284e-21
[OGL LOG][Proc: 0]: global_index_init: 0.128 [ms]
[OGL LOG][Proc: 0]p_local_coeffs: call_update: 0 [ms]
[OGL LOG][Proc: 0]p_non_local_coeffs: call_update: 0 [ms]
local_interface_nnzs01[OGL LOG][Proc: 0]p: update_local_matrix_data: 40.821 [ms]
[OGL LOG][Proc: 0]p: update_non_local_matrix_data: 0.834 [ms]
[OGL LOG][Proc: 0]p_matrix: call_update: 9.175 [ms]
[OGL LOG][Proc: 0]p_rhs: call_update: 18.411 [ms]
[OGL LOG][Proc: 0]p: init_precond: 0.034 [ms]
[OGL LOG][StoppingCriterion.H:372] Creating stopping criterion with minIter 447 frequency 12
[OGL LOG][Proc: 0]p: generate_solver: 0.026 [ms]
[OGL LOG][Proc: 0]p: solve: 3934.89 [ms]
[OGL LOG][Proc: 0]p: copy_x_back: 3.896 [ms]
[OGL LOG][lduLduBase.H:319] 
Statistics:
	Time per iteration: 5281 [mu s]
	Time per residual norm calculation: 2112.000000 [mu s]
	Time per iteration and DOF: 0.660125 [ns]
	Retrieve results bandwith 0.513000 [GByte/s]
[OGL LOG][Proc: 0]p: solve_multi_gpu: 3987.04 [ms]
nonecudaGKOCG:  Solving for p, Initial residual = 0.726182, Final residual = 8.69389e-05, No Iterations 745
time step continuity errors : sum local = 8.76569e-09, global = 1.30029e-22, cumulative = -7.68281e-21
ExecutionTime = 97.21 s  ClockTime = 127 s

Time = 0.0015

Courant Number mean: 0.0366253 max: 0.475543
DILUPBiCGStab:  Solving for Ux, Initial residual = 0.0204489, Final residual = 0.000684022, No Iterations 5
DILUPBiCGStab:  Solving for Uy, Initial residual = 0.0659585, Final residual = 0.0025671, No Iterations 5
DILUPBiCGStab:  Solving for Uz, Initial residual = 0.337267, Final residual = 0.00882611, No Iterations 5
[OGL LOG][Proc: 0]: global_index_init: 0.113 [ms]
[OGL LOG][Proc: 0]p_local_coeffs: call_update: 0 [ms]
[OGL LOG][Proc: 0]p_non_local_coeffs: call_update: 0 [ms]
local_interface_nnzs01[OGL LOG][Proc: 0]p: update_local_matrix_data: 40.727 [ms]
[OGL LOG][Proc: 0]p: update_non_local_matrix_data: 1.124 [ms]
[OGL LOG][Proc: 0]p_matrix: call_update: 8.828 [ms]
[OGL LOG][Proc: 0]p_rhs: call_update: 18.68 [ms]
[OGL LOG][Proc: 0]p: init_precond: 0.035 [ms]
[OGL LOG][StoppingCriterion.H:372] Creating stopping criterion with minIter 447 frequency 12
[OGL LOG][Proc: 0]p: generate_solver: 0.025 [ms]
[OGL LOG][Proc: 0]p: solve: 3988.16 [ms]
[OGL LOG][Proc: 0]p: copy_x_back: 3.227 [ms]
[OGL LOG][lduLduBase.H:319] 
Statistics:
	Time per iteration: 5353 [mu s]
	Time per residual norm calculation: 2110.000000 [mu s]
	Time per iteration and DOF: 0.669125 [ns]
	Retrieve results bandwith 0.619000 [GByte/s]
[OGL LOG][Proc: 0]p: solve_multi_gpu: 4033.04 [ms]
nonecudaGKOCG:  Solving for p, Initial residual = 0.685906, Final residual = 9.58426e-05, No Iterations 745
time step continuity errors : sum local = 9.96176e-09, global = -2.55423e-21, cumulative = -1.0237e-20
[OGL LOG][Proc: 0]: global_index_init: 2.665 [ms]
[OGL LOG][Proc: 0]p_local_coeffs: call_update: 0.001 [ms]
[OGL LOG][Proc: 0]p_non_local_coeffs: call_update: 0 [ms]
local_interface_nnzs01[OGL LOG][Proc: 0]p: update_local_matrix_data: 40.76 [ms]
[OGL LOG][Proc: 0]p: update_non_local_matrix_data: 0.746 [ms]
[OGL LOG][Proc: 0]p_matrix: call_update: 12.401 [ms]
[OGL LOG][Proc: 0]p_rhs: call_update: 15.01 [ms]
[OGL LOG][Proc: 0]p: init_precond: 0.033 [ms]
[OGL LOG][StoppingCriterion.H:372] Creating stopping criterion with minIter 447 frequency 12
[OGL LOG][Proc: 0]p: generate_solver: 0.027 [ms]
[OGL LOG][Proc: 0]p: solve: 3938.72 [ms]
[OGL LOG][Proc: 0]p: copy_x_back: 4.465 [ms]
[OGL LOG][lduLduBase.H:319] 
Statistics:
	Time per iteration: 5286 [mu s]
	Time per residual norm calculation: 2116.000000 [mu s]
	Time per iteration and DOF: 0.660750 [ns]
	Retrieve results bandwith 0.447000 [GByte/s]
[OGL LOG][Proc: 0]p: solve_multi_gpu: 3990.38 [ms]
nonecudaGKOCG:  Solving for p, Initial residual = 0.625429, Final residual = 7.92833e-05, No Iterations 745
time step continuity errors : sum local = 7.7821e-09, global = -5.60379e-21, cumulative = -1.58408e-20
ExecutionTime = 108.05 s  ClockTime = 138 s

Time = 0.00175

Courant Number mean: 0.0395403 max: 0.477486
DILUPBiCGStab:  Solving for Ux, Initial residual = 0.0174581, Final residual = 0.000549164, No Iterations 5
DILUPBiCGStab:  Solving for Uy, Initial residual = 0.049172, Final residual = 0.00187703, No Iterations 5
DILUPBiCGStab:  Solving for Uz, Initial residual = 0.262954, Final residual = 0.00814349, No Iterations 5
[OGL LOG][Proc: 0]: global_index_init: 0.296 [ms]
[OGL LOG][Proc: 0]p_local_coeffs: call_update: 0 [ms]
[OGL LOG][Proc: 0]p_non_local_coeffs: call_update: 0 [ms]
local_interface_nnzs01[OGL LOG][Proc: 0]p: update_local_matrix_data: 40.921 [ms]
[OGL LOG][Proc: 0]p: update_non_local_matrix_data: 0.878 [ms]
[OGL LOG][Proc: 0]p_matrix: call_update: 9.236 [ms]
[OGL LOG][Proc: 0]p_rhs: call_update: 18.969 [ms]
[OGL LOG][Proc: 0]p: init_precond: 0.035 [ms]
[OGL LOG][StoppingCriterion.H:372] Creating stopping criterion with minIter 447 frequency 12
[OGL LOG][Proc: 0]p: generate_solver: 0.025 [ms]
[OGL LOG][Proc: 0]p: solve: 8059.86 [ms]
[OGL LOG][Proc: 0]p: copy_x_back: 2.532 [ms]
[OGL LOG][lduLduBase.H:319] 
Statistics:
	Time per iteration: 5285 [mu s]
	Time per residual norm calculation: 2109.000000 [mu s]
	Time per iteration and DOF: 0.660625 [ns]
	Retrieve results bandwith 0.789000 [GByte/s]
[OGL LOG][Proc: 0]p: solve_multi_gpu: 8111.26 [ms]
nonecudaGKOCG:  Solving for p, Initial residual = 0.681214, Final residual = 7.58532e-05, No Iterations 1525
time step continuity errors : sum local = 5.9392e-09, global = -2.37215e-21, cumulative = -1.8213e-20
[OGL LOG][Proc: 0]: global_index_init: 0.017 [ms]
[OGL LOG][Proc: 0]p_local_coeffs: call_update: 0 [ms]
[OGL LOG][Proc: 0]p_non_local_coeffs: call_update: 0 [ms]
local_interface_nnzs01[OGL LOG][Proc: 0]p: update_local_matrix_data: 40.909 [ms]
[OGL LOG][Proc: 0]p: update_non_local_matrix_data: 0.831 [ms]
[OGL LOG][Proc: 0]p_matrix: call_update: 9.175 [ms]
[OGL LOG][Proc: 0]p_rhs: call_update: 18.729 [ms]
[OGL LOG][Proc: 0]p: init_precond: 0.033 [ms]
[OGL LOG][StoppingCriterion.H:372] Creating stopping criterion with minIter 915 frequency 17
[OGL LOG][Proc: 0]p: generate_solver: 0.026 [ms]
[OGL LOG][Proc: 0]p: solve: 7821.74 [ms]
[OGL LOG][Proc: 0]p: copy_x_back: 3.73 [ms]
[OGL LOG][lduLduBase.H:319] 
Statistics:
	Time per iteration: 5166 [mu s]
	Time per residual norm calculation: 1953.000000 [mu s]
	Time per iteration and DOF: 0.645750 [ns]
	Retrieve results bandwith 0.536000 [GByte/s]
[OGL LOG][Proc: 0]p: solve_multi_gpu: 7872.73 [ms]
nonecudaGKOCG:  Solving for p, Initial residual = 0.621997, Final residual = 9.37877e-05, No Iterations 1514
time step continuity errors : sum local = 7.30325e-09, global = -5.8466e-21, cumulative = -2.40596e-20
ExecutionTime = 126.81 s  ClockTime = 157 s

Time = 0.002

Courant Number mean: 0.0420648 max: 0.479192
DILUPBiCGStab:  Solving for Ux, Initial residual = 0.0143174, Final residual = 0.000425556, No Iterations 5
DILUPBiCGStab:  Solving for Uy, Initial residual = 0.04186, Final residual = 0.00146377, No Iterations 5
DILUPBiCGStab:  Solving for Uz, Initial residual = 0.205127, Final residual = 0.00625063, No Iterations 5
[OGL LOG][Proc: 0]: global_index_init: 0.078 [ms]
[OGL LOG][Proc: 0]p_local_coeffs: call_update: 0.001 [ms]
[OGL LOG][Proc: 0]p_non_local_coeffs: call_update: 0 [ms]
local_interface_nnzs01[OGL LOG][Proc: 0]p: update_local_matrix_data: 41.007 [ms]
[OGL LOG][Proc: 0]p: update_non_local_matrix_data: 0.657 [ms]
[OGL LOG][Proc: 0]p_matrix: call_update: 8.63 [ms]
[OGL LOG][Proc: 0]p_rhs: call_update: 19.124 [ms]
[OGL LOG][Proc: 0]p: init_precond: 0.035 [ms]
[OGL LOG][StoppingCriterion.H:372] Creating stopping criterion with minIter 908 frequency 17
[OGL LOG][Proc: 0]p: generate_solver: 0.025 [ms]
[OGL LOG][Proc: 0]p: solve: 7959.57 [ms]
[OGL LOG][Proc: 0]p: copy_x_back: 4.035 [ms]
[OGL LOG][lduLduBase.H:319] 
Statistics:
	Time per iteration: 5198 [mu s]
	Time per residual norm calculation: 1955.000000 [mu s]
	Time per iteration and DOF: 0.649750 [ns]
	Retrieve results bandwith 0.495000 [GByte/s]
[OGL LOG][Proc: 0]p: solve_multi_gpu: 8011.98 [ms]
nonecudaGKOCG:  Solving for p, Initial residual = 0.591246, Final residual = 7.83998e-05, No Iterations 1531
time step continuity errors : sum local = 5.84994e-09, global = -4.86402e-21, cumulative = -2.89236e-20
[OGL LOG][Proc: 0]: global_index_init: 0.018 [ms]
[OGL LOG][Proc: 0]p_local_coeffs: call_update: 0 [ms]
[OGL LOG][Proc: 0]p_non_local_coeffs: call_update: 0 [ms]
local_interface_nnzs01[OGL LOG][Proc: 0]p: update_local_matrix_data: 41.376 [ms]
[OGL LOG][Proc: 0]p: update_non_local_matrix_data: 0.517 [ms]
[OGL LOG][Proc: 0]p_matrix: call_update: 11.92 [ms]
[OGL LOG][Proc: 0]p_rhs: call_update: 16.338 [ms]
[OGL LOG][Proc: 0]p: init_precond: 0.035 [ms]
[OGL LOG][StoppingCriterion.H:372] Creating stopping criterion with minIter 918 frequency 17
[OGL LOG][Proc: 0]p: generate_solver: 0.026 [ms]
[OGL LOG][Proc: 0]p: solve: 7929.33 [ms]
[OGL LOG][Proc: 0]p: copy_x_back: 1.837 [ms]
[OGL LOG][lduLduBase.H:319] 
Statistics:
	Time per iteration: 5179 [mu s]
	Time per residual norm calculation: 2408.000000 [mu s]
	Time per iteration and DOF: 0.647375 [ns]
	Retrieve results bandwith 1.088000 [GByte/s]
[OGL LOG][Proc: 0]p: solve_multi_gpu: 7980.17 [ms]
nonecudaGKOCG:  Solving for p, Initial residual = 0.534054, Final residual = 7.43404e-05, No Iterations 1531
time step continuity errors : sum local = 5.53487e-09, global = -5.25321e-21, cumulative = -3.41768e-20
ExecutionTime = 145.57 s  ClockTime = 176 s

Time = 0.00225

Courant Number mean: 0.0443504 max: 0.480341
DILUPBiCGStab:  Solving for Ux, Initial residual = 0.0125974, Final residual = 0.000352217, No Iterations 5
DILUPBiCGStab:  Solving for Uy, Initial residual = 0.0337364, Final residual = 0.00103745, No Iterations 5
DILUPBiCGStab:  Solving for Uz, Initial residual = 0.165703, Final residual = 0.0058481, No Iterations 5
[OGL LOG][Proc: 0]: global_index_init: 0.275 [ms]
[OGL LOG][Proc: 0]p_local_coeffs: call_update: 0 [ms]
[OGL LOG][Proc: 0]p_non_local_coeffs: call_update: 0 [ms]
local_interface_nnzs01[OGL LOG][Proc: 0]p: update_local_matrix_data: 40.935 [ms]
[OGL LOG][Proc: 0]p: update_non_local_matrix_data: 0.779 [ms]
[OGL LOG][Proc: 0]p_matrix: call_update: 9.097 [ms]
[OGL LOG][Proc: 0]p_rhs: call_update: 18.233 [ms]
[OGL LOG][Proc: 0]p: init_precond: 0.034 [ms]
[OGL LOG][StoppingCriterion.H:372] Creating stopping criterion with minIter 918 frequency 17
[OGL LOG][Proc: 0]p: generate_solver: 0.025 [ms]
[OGL LOG][Proc: 0]p: solve: 7911.83 [ms]
[OGL LOG][Proc: 0]p: copy_x_back: 3.221 [ms]
[OGL LOG][lduLduBase.H:319] 
Statistics:
	Time per iteration: 5225 [mu s]
	Time per residual norm calculation: 2113.000000 [mu s]
	Time per iteration and DOF: 0.653125 [ns]
	Retrieve results bandwith 0.620000 [GByte/s]
[OGL LOG][Proc: 0]p: solve_multi_gpu: 7963.31 [ms]
nonecudaGKOCG:  Solving for p, Initial residual = 0.577938, Final residual = 8.02942e-05, No Iterations 1514
time step continuity errors : sum local = 5.17804e-09, global = -5.41268e-21, cumulative = -3.95895e-20
[OGL LOG][Proc: 0]: global_index_init: 0.107 [ms]
[OGL LOG][Proc: 0]p_local_coeffs: call_update: 0.001 [ms]
[OGL LOG][Proc: 0]p_non_local_coeffs: call_update: 0 [ms]
local_interface_nnzs01[OGL LOG][Proc: 0]p: update_local_matrix_data: 40.841 [ms]
[OGL LOG][Proc: 0]p: update_non_local_matrix_data: 0.842 [ms]
[OGL LOG][Proc: 0]p_matrix: call_update: 9.202 [ms]
[OGL LOG][Proc: 0]p_rhs: call_update: 18.105 [ms]
[OGL LOG][Proc: 0]p: init_precond: 0.034 [ms]
[OGL LOG][StoppingCriterion.H:372] Creating stopping criterion with minIter 908 frequency 17
[OGL LOG][Proc: 0]p: generate_solver: 0.026 [ms]
[OGL LOG][Proc: 0]p: solve: 7776.18 [ms]
[OGL LOG][Proc: 0]p: copy_x_back: 3.049 [ms]
[OGL LOG][lduLduBase.H:319] 
Statistics:
	Time per iteration: 5194 [mu s]
	Time per residual norm calculation: 2110.000000 [mu s]
	Time per iteration and DOF: 0.649250 [ns]
	Retrieve results bandwith 0.655000 [GByte/s]
[OGL LOG][Proc: 0]p: solve_multi_gpu: 7827.59 [ms]
nonecudaGKOCG:  Solving for p, Initial residual = 0.517593, Final residual = 9.90216e-05, No Iterations 1497
time step continuity errors : sum local = 6.38189e-09, global = -3.2843e-21, cumulative = -4.28738e-20
ExecutionTime = 164.13 s  ClockTime = 195 s

Time = 0.0025

Courant Number mean: 0.0464048 max: 0.481447
DILUPBiCGStab:  Solving for Ux, Initial residual = 0.0108437, Final residual = 0.000285351, No Iterations 5
DILUPBiCGStab:  Solving for Uy, Initial residual = 0.0295416, Final residual = 0.00085193, No Iterations 5
DILUPBiCGStab:  Solving for Uz, Initial residual = 0.133995, Final residual = 0.00480385, No Iterations 5
[OGL LOG][Proc: 0]: global_index_init: 0.284 [ms]
[OGL LOG][Proc: 0]p_local_coeffs: call_update: 0 [ms]
[OGL LOG][Proc: 0]p_non_local_coeffs: call_update: 0 [ms]
local_interface_nnzs01[OGL LOG][Proc: 0]p: update_local_matrix_data: 41.188 [ms]
[OGL LOG][Proc: 0]p: update_non_local_matrix_data: 0.636 [ms]
[OGL LOG][Proc: 0]p_matrix: call_update: 10.237 [ms]
[OGL LOG][Proc: 0]p_rhs: call_update: 17.385 [ms]
[OGL LOG][Proc: 0]p: init_precond: 0.034 [ms]
[OGL LOG][StoppingCriterion.H:372] Creating stopping criterion with minIter 898 frequency 17
[OGL LOG][Proc: 0]p: generate_solver: 0.025 [ms]
[OGL LOG][Proc: 0]p: solve: 7781.98 [ms]
[OGL LOG][Proc: 0]p: copy_x_back: 3.253 [ms]
[OGL LOG][lduLduBase.H:319] 
Statistics:
	Time per iteration: 5198 [mu s]
	Time per residual norm calculation: 2116.000000 [mu s]
	Time per iteration and DOF: 0.649750 [ns]
	Retrieve results bandwith 0.614000 [GByte/s]
[OGL LOG][Proc: 0]p: solve_multi_gpu: 7832.8 [ms]
nonecudaGKOCG:  Solving for p, Initial residual = 0.501966, Final residual = 9.27884e-05, No Iterations 1497
time step continuity errors : sum local = 5.8139e-09, global = -3.59158e-21, cumulative = -4.64654e-20
[OGL LOG][Proc: 0]: global_index_init: 0.605 [ms]
[OGL LOG][Proc: 0]p_local_coeffs: call_update: 0 [ms]
[OGL LOG][Proc: 0]p_non_local_coeffs: call_update: 0 [ms]
local_interface_nnzs01[OGL LOG][Proc: 0]p: update_local_matrix_data: 40.884 [ms]
[OGL LOG][Proc: 0]p: update_non_local_matrix_data: 0.824 [ms]
[OGL LOG][Proc: 0]p_matrix: call_update: 9.37 [ms]
[OGL LOG][Proc: 0]p_rhs: call_update: 18.089 [ms]
[OGL LOG][Proc: 0]p: init_precond: 0.034 [ms]
[OGL LOG][StoppingCriterion.H:372] Creating stopping criterion with minIter 898 frequency 17
[OGL LOG][Proc: 0]p: generate_solver: 0.025 [ms]
[OGL LOG][Proc: 0]p: solve: 7765.27 [ms]
[OGL LOG][Proc: 0]p: copy_x_back: 0.808 [ms]
[OGL LOG][lduLduBase.H:319] 
Statistics:
	Time per iteration: 5187 [mu s]
	Time per residual norm calculation: 2394.000000 [mu s]
	Time per iteration and DOF: 0.648375 [ns]
	Retrieve results bandwith 2.475000 [GByte/s]
[OGL LOG][Proc: 0]p: solve_multi_gpu: 7814.28 [ms]
nonecudaGKOCG:  Solving for p, Initial residual = 0.449518, Final residual = 9.21455e-05, No Iterations 1497
time step continuity errors : sum local = 5.74965e-09, global = -8.47825e-22, cumulative = -4.73132e-20
ExecutionTime = 182.54 s  ClockTime = 213 s

Time = 0.00275

Courant Number mean: 0.0482937 max: 0.48222
DILUPBiCGStab:  Solving for Ux, Initial residual = 0.00971425, Final residual = 0.000240582, No Iterations 5
DILUPBiCGStab:  Solving for Uy, Initial residual = 0.025017, Final residual = 0.000620253, No Iterations 5
DILUPBiCGStab:  Solving for Uz, Initial residual = 0.112178, Final residual = 0.00452599, No Iterations 5
[OGL LOG][Proc: 0]: global_index_init: 0.121 [ms]
[OGL LOG][Proc: 0]p_local_coeffs: call_update: 0 [ms]
[OGL LOG][Proc: 0]p_non_local_coeffs: call_update: 0 [ms]
local_interface_nnzs01[OGL LOG][Proc: 0]p: update_local_matrix_data: 40.972 [ms]
[OGL LOG][Proc: 0]p: update_non_local_matrix_data: 0.693 [ms]
[OGL LOG][Proc: 0]p_matrix: call_update: 9.135 [ms]
[OGL LOG][Proc: 0]p_rhs: call_update: 18.485 [ms]
[OGL LOG][Proc: 0]p: init_precond: 0.034 [ms]
[OGL LOG][StoppingCriterion.H:372] Creating stopping criterion with minIter 898 frequency 17
[OGL LOG][Proc: 0]p: generate_solver: 0.025 [ms]
[OGL LOG][Proc: 0]p: solve: 7789.46 [ms]
[OGL LOG][Proc: 0]p: copy_x_back: 4.048 [ms]
[OGL LOG][lduLduBase.H:319] 
Statistics:
	Time per iteration: 5203 [mu s]
	Time per residual norm calculation: 1956.000000 [mu s]
	Time per iteration and DOF: 0.650375 [ns]
	Retrieve results bandwith 0.494000 [GByte/s]
[OGL LOG][Proc: 0]p: solve_multi_gpu: 7841.93 [ms]
nonecudaGKOCG:  Solving for p, Initial residual = 0.477341, Final residual = 7.49965e-05, No Iterations 1497
time step continuity errors : sum local = 4.23871e-09, global = -3.58326e-21, cumulative = -5.08964e-20
[OGL LOG][Proc: 0]: global_index_init: 0.188 [ms]
[OGL LOG][Proc: 0]p_local_coeffs: call_update: 0 [ms]
[OGL LOG][Proc: 0]p_non_local_coeffs: call_update: 0 [ms]
local_interface_nnzs01[OGL LOG][Proc: 0]p: update_local_matrix_data: 41.027 [ms]
[OGL LOG][Proc: 0]p: update_non_local_matrix_data: 0.764 [ms]
[OGL LOG][Proc: 0]p_matrix: call_update: 10.063 [ms]
[OGL LOG][Proc: 0]p_rhs: call_update: 17.948 [ms]
[OGL LOG][Proc: 0]p: init_precond: 0.034 [ms]
[OGL LOG][StoppingCriterion.H:372] Creating stopping criterion with minIter 898 frequency 17
[OGL LOG][Proc: 0]p: generate_solver: 0.025 [ms]
[OGL LOG][Proc: 0]p: solve: 7742.69 [ms]
[OGL LOG][Proc: 0]p: copy_x_back: 3.28 [ms]
[OGL LOG][lduLduBase.H:319] 
Statistics:
	Time per iteration: 5172 [mu s]
	Time per residual norm calculation: 2107.000000 [mu s]
	Time per iteration and DOF: 0.646500 [ns]
	Retrieve results bandwith 0.609000 [GByte/s]
[OGL LOG][Proc: 0]p: solve_multi_gpu: 7795.26 [ms]
nonecudaGKOCG:  Solving for p, Initial residual = 0.423462, Final residual = 7.08454e-05, No Iterations 1497
time step continuity errors : sum local = 4.0075e-09, global = -3.02284e-21, cumulative = -5.39193e-20
ExecutionTime = 200.95 s  ClockTime = 232 s

Time = 0.003

Courant Number mean: 0.0500276 max: 0.483011
DILUPBiCGStab:  Solving for Ux, Initial residual = 0.00862383, Final residual = 0.000201558, No Iterations 5
DILUPBiCGStab:  Solving for Uy, Initial residual = 0.0223383, Final residual = 0.0005123, No Iterations 5
DILUPBiCGStab:  Solving for Uz, Initial residual = 0.0939268, Final residual = 0.00384434, No Iterations 5
[OGL LOG][Proc: 0]: global_index_init: 0.105 [ms]
[OGL LOG][Proc: 0]p_local_coeffs: call_update: 0 [ms]
[OGL LOG][Proc: 0]p_non_local_coeffs: call_update: 0 [ms]
local_interface_nnzs01[OGL LOG][Proc: 0]p: update_local_matrix_data: 40.88 [ms]
[OGL LOG][Proc: 0]p: update_non_local_matrix_data: 0.733 [ms]
[OGL LOG][Proc: 0]p_matrix: call_update: 13.671 [ms]
[OGL LOG][Proc: 0]p_rhs: call_update: 14.262 [ms]
[OGL LOG][Proc: 0]p: init_precond: 0.034 [ms]
[OGL LOG][StoppingCriterion.H:372] Creating stopping criterion with minIter 898 frequency 17
[OGL LOG][Proc: 0]p: generate_solver: 0.025 [ms]
[OGL LOG][Proc: 0]p: solve: 7784.53 [ms]
[OGL LOG][Proc: 0]p: copy_x_back: 3.032 [ms]
[OGL LOG][lduLduBase.H:319] 
Statistics:
	Time per iteration: 5200 [mu s]
	Time per residual norm calculation: 2106.000000 [mu s]
	Time per iteration and DOF: 0.650000 [ns]
	Retrieve results bandwith 0.659000 [GByte/s]
[OGL LOG][Proc: 0]p: solve_multi_gpu: 7836.84 [ms]
nonecudaGKOCG:  Solving for p, Initial residual = 0.420456, Final residual = 7.42885e-05, No Iterations 1497
time step continuity errors : sum local = 4.08112e-09, global = -4.98061e-21, cumulative = -5.88999e-20
[OGL LOG][Proc: 0]: global_index_init: 0.093 [ms]
[OGL LOG][Proc: 0]p_local_coeffs: call_update: 0 [ms]
[OGL LOG][Proc: 0]p_non_local_coeffs: call_update: 0 [ms]
local_interface_nnzs01[OGL LOG][Proc: 0]p: update_local_matrix_data: 41.096 [ms]
[OGL LOG][Proc: 0]p: update_non_local_matrix_data: 0.796 [ms]
[OGL LOG][Proc: 0]p_matrix: call_update: 10.338 [ms]
[OGL LOG][Proc: 0]p_rhs: call_update: 17.551 [ms]
[OGL LOG][Proc: 0]p: init_precond: 0.036 [ms]
[OGL LOG][StoppingCriterion.H:372] Creating stopping criterion with minIter 898 frequency 17
[OGL LOG][Proc: 0]p: generate_solver: 0.025 [ms]
[OGL LOG][Proc: 0]p: solve: 7754.78 [ms]
[OGL LOG][Proc: 0]p: copy_x_back: 1.127 [ms]
[OGL LOG][lduLduBase.H:319] 
Statistics:
	Time per iteration: 5180 [mu s]
	Time per residual norm calculation: 2540.000000 [mu s]
	Time per iteration and DOF: 0.647500 [ns]
	Retrieve results bandwith 1.774000 [GByte/s]
[OGL LOG][Proc: 0]p: solve_multi_gpu: 7804.84 [ms]
nonecudaGKOCG:  Solving for p, Initial residual = 0.37408, Final residual = 7.01975e-05, No Iterations 1497
time step continuity errors : sum local = 3.83966e-09, global = -3.23969e-21, cumulative = -6.21396e-20
ExecutionTime = 219.36 s  ClockTime = 250 s

Time = 0.00325

Courant Number mean: 0.0516386 max: 0.483576
DILUPBiCGStab:  Solving for Ux, Initial residual = 0.00782734, Final residual = 0.000172163, No Iterations 5
DILUPBiCGStab:  Solving for Uy, Initial residual = 0.0195554, Final residual = 0.000402567, No Iterations 5
DILUPBiCGStab:  Solving for Uz, Initial residual = 0.0801758, Final residual = 0.00357405, No Iterations 5
[OGL LOG][Proc: 0]: global_index_init: 0.091 [ms]
[OGL LOG][Proc: 0]p_local_coeffs: call_update: 0 [ms]
[OGL LOG][Proc: 0]p_non_local_coeffs: call_update: 0 [ms]
local_interface_nnzs01[OGL LOG][Proc: 0]p: update_local_matrix_data: 41.141 [ms]
[OGL LOG][Proc: 0]p: update_non_local_matrix_data: 0.684 [ms]
[OGL LOG][Proc: 0]p_matrix: call_update: 10.356 [ms]
[OGL LOG][Proc: 0]p_rhs: call_update: 16.368 [ms]
[OGL LOG][Proc: 0]p: init_precond: 0.037 [ms]
[OGL LOG][StoppingCriterion.H:372] Creating stopping criterion with minIter 898 frequency 17
[OGL LOG][Proc: 0]p: generate_solver: 0.03 [ms]
[OGL LOG][Proc: 0]p: solve: 7715.56 [ms]
[OGL LOG][Proc: 0]p: copy_x_back: 1.078 [ms]
[OGL LOG][lduLduBase.H:319] 
Statistics:
	Time per iteration: 5213 [mu s]
	Time per residual norm calculation: 2544.000000 [mu s]
	Time per iteration and DOF: 0.651625 [ns]
	Retrieve results bandwith 1.855000 [GByte/s]
[OGL LOG][Proc: 0]p: solve_multi_gpu: 7764.31 [ms]
nonecudaGKOCG:  Solving for p, Initial residual = 0.389675, Final residual = 9.31398e-05, No Iterations 1480
time step continuity errors : sum local = 4.77699e-09, global = -2.99585e-21, cumulative = -6.51354e-20
[OGL LOG][Proc: 0]: global_index_init: 0.516 [ms]
[OGL LOG][Proc: 0]p_local_coeffs: call_update: 0.001 [ms]
[OGL LOG][Proc: 0]p_non_local_coeffs: call_update: 0 [ms]
local_interface_nnzs01[OGL LOG][Proc: 0]p: update_local_matrix_data: 41.325 [ms]
[OGL LOG][Proc: 0]p: update_non_local_matrix_data: 0.521 [ms]
[OGL LOG][Proc: 0]p_matrix: call_update: 9.357 [ms]
[OGL LOG][Proc: 0]p_rhs: call_update: 18.766 [ms]
[OGL LOG][Proc: 0]p: init_precond: 0.036 [ms]
[OGL LOG][StoppingCriterion.H:372] Creating stopping criterion with minIter 888 frequency 17
[OGL LOG][Proc: 0]p: generate_solver: 0.027 [ms]
[OGL LOG][Proc: 0]p: solve: 7663.63 [ms]
[OGL LOG][Proc: 0]p: copy_x_back: 3.909 [ms]
[OGL LOG][lduLduBase.H:319] 
Statistics:
	Time per iteration: 5178 [mu s]
	Time per residual norm calculation: 1972.000000 [mu s]
	Time per iteration and DOF: 0.647250 [ns]
	Retrieve results bandwith 0.511000 [GByte/s]
[OGL LOG][Proc: 0]p: solve_multi_gpu: 7716.93 [ms]
nonecudaGKOCG:  Solving for p, Initial residual = 0.343636, Final residual = 8.64974e-05, No Iterations 1480
time step continuity errors : sum local = 4.44133e-09, global = -4.82508e-21, cumulative = -6.99605e-20
ExecutionTime = 237.62 s  ClockTime = 269 s

Time = 0.0035

Courant Number mean: 0.0531349 max: 0.484171
DILUPBiCGStab:  Solving for Ux, Initial residual = 0.00709363, Final residual = 0.000147605, No Iterations 5
DILUPBiCGStab:  Solving for Uy, Initial residual = 0.0177267, Final residual = 0.000334355, No Iterations 5
DILUPBiCGStab:  Solving for Uz, Initial residual = 0.0691122, Final residual = 0.00311043, No Iterations 5
[OGL LOG][Proc: 0]: global_index_init: 0.14 [ms]
[OGL LOG][Proc: 0]p_local_coeffs: call_update: 0 [ms]
[OGL LOG][Proc: 0]p_non_local_coeffs: call_update: 0 [ms]
local_interface_nnzs01[OGL LOG][Proc: 0]p: update_local_matrix_data: 40.853 [ms]
[OGL LOG][Proc: 0]p: update_non_local_matrix_data: 0.667 [ms]
[OGL LOG][Proc: 0]p_matrix: call_update: 9.006 [ms]
[OGL LOG][Proc: 0]p_rhs: call_update: 18.19 [ms]
[OGL LOG][Proc: 0]p: init_precond: 0.035 [ms]
[OGL LOG][StoppingCriterion.H:372] Creating stopping criterion with minIter 888 frequency 17
[OGL LOG][Proc: 0]p: generate_solver: 0.025 [ms]
[OGL LOG][Proc: 0]p: solve: 7795.57 [ms]
[OGL LOG][Proc: 0]p: copy_x_back: 3.475 [ms]
[OGL LOG][lduLduBase.H:319] 
Statistics:
	Time per iteration: 5207 [mu s]
	Time per residual norm calculation: 2113.000000 [mu s]
	Time per iteration and DOF: 0.650875 [ns]
	Retrieve results bandwith 0.575000 [GByte/s]
[OGL LOG][Proc: 0]p: solve_multi_gpu: 7846.91 [ms]
nonecudaGKOCG:  Solving for p, Initial residual = 0.347744, Final residual = 6.34889e-05, No Iterations 1497
time step continuity errors : sum local = 3.15085e-09, global = -3.63715e-21, cumulative = -7.35977e-20
[OGL LOG][Proc: 0]: global_index_init: 0.092 [ms]
[OGL LOG][Proc: 0]p_local_coeffs: call_update: 0 [ms]
[OGL LOG][Proc: 0]p_non_local_coeffs: call_update: 0 [ms]
local_interface_nnzs01[OGL LOG][Proc: 0]p: update_local_matrix_data: 41.473 [ms]
[OGL LOG][Proc: 0]p: update_non_local_matrix_data: 0.51 [ms]
[OGL LOG][Proc: 0]p_matrix: call_update: 15.373 [ms]
[OGL LOG][Proc: 0]p_rhs: call_update: 12.212 [ms]
[OGL LOG][Proc: 0]p: init_precond: 0.034 [ms]
[OGL LOG][StoppingCriterion.H:372] Creating stopping criterion with minIter 898 frequency 17
[OGL LOG][Proc: 0]p: generate_solver: 0.025 [ms]
[OGL LOG][Proc: 0]p: solve: 7761.35 [ms]
[OGL LOG][Proc: 0]p: copy_x_back: 3.946 [ms]
[OGL LOG][lduLduBase.H:319] 
Statistics:
	Time per iteration: 5184 [mu s]
	Time per residual norm calculation: 2117.000000 [mu s]
	Time per iteration and DOF: 0.648000 [ns]
	Retrieve results bandwith 0.506000 [GByte/s]
[OGL LOG][Proc: 0]p: solve_multi_gpu: 7811.15 [ms]
nonecudaGKOCG:  Solving for p, Initial residual = 0.308291, Final residual = 5.99133e-05, No Iterations 1497
time step continuity errors : sum local = 2.96186e-09, global = -1.69631e-21, cumulative = -7.5294e-20
ExecutionTime = 256.05 s  ClockTime = 287 s

Time = 0.00375

Courant Number mean: 0.054538 max: 0.484612
DILUPBiCGStab:  Solving for Ux, Initial residual = 0.00650485, Final residual = 0.000127375, No Iterations 5
DILUPBiCGStab:  Solving for Uy, Initial residual = 0.0158788, Final residual = 0.000287372, No Iterations 5
DILUPBiCGStab:  Solving for Uz, Initial residual = 0.0598218, Final residual = 0.00283989, No Iterations 5
[OGL LOG][Proc: 0]: global_index_init: 0.141 [ms]
[OGL LOG][Proc: 0]p_local_coeffs: call_update: 0 [ms]
[OGL LOG][Proc: 0]p_non_local_coeffs: call_update: 0 [ms]
local_interface_nnzs01[OGL LOG][Proc: 0]p: update_local_matrix_data: 41.158 [ms]
[OGL LOG][Proc: 0]p: update_non_local_matrix_data: 0.518 [ms]
[OGL LOG][Proc: 0]p_matrix: call_update: 8.824 [ms]
[OGL LOG][Proc: 0]p_rhs: call_update: 18.269 [ms]
[OGL LOG][Proc: 0]p: init_precond: 0.035 [ms]
[OGL LOG][StoppingCriterion.H:372] Creating stopping criterion with minIter 898 frequency 17
[OGL LOG][Proc: 0]p: generate_solver: 0.026 [ms]
[OGL LOG][Proc: 0]p: solve: 7688.67 [ms]
[OGL LOG][Proc: 0]p: copy_x_back: 0.662 [ms]
[OGL LOG][lduLduBase.H:319] 
Statistics:
	Time per iteration: 5195 [mu s]
	Time per residual norm calculation: 2254.000000 [mu s]
	Time per iteration and DOF: 0.649375 [ns]
	Retrieve results bandwith 3.021000 [GByte/s]
[OGL LOG][Proc: 0]p: solve_multi_gpu: 7732.8 [ms]
nonecudaGKOCG:  Solving for p, Initial residual = 0.315064, Final residual = 9.06741e-05, No Iterations 1480
time step continuity errors : sum local = 4.31327e-09, global = -5.91434e-21, cumulative = -8.12083e-20
[OGL LOG][Proc: 0]: global_index_init: 0.743 [ms]
[OGL LOG][Proc: 0]p_local_coeffs: call_update: 0 [ms]
[OGL LOG][Proc: 0]p_non_local_coeffs: call_update: 0 [ms]
local_interface_nnzs01[OGL LOG][Proc: 0]p: update_local_matrix_data: 41.353 [ms]
[OGL LOG][Proc: 0]p: update_non_local_matrix_data: 0.521 [ms]
[OGL LOG][Proc: 0]p_matrix: call_update: 10.948 [ms]
[OGL LOG][Proc: 0]p_rhs: call_update: 17.158 [ms]
[OGL LOG][Proc: 0]p: init_precond: 0.036 [ms]
[OGL LOG][StoppingCriterion.H:372] Creating stopping criterion with minIter 888 frequency 17
[OGL LOG][Proc: 0]p: generate_solver: 0.027 [ms]
[OGL LOG][Proc: 0]p: solve: 7668.99 [ms]
[OGL LOG][Proc: 0]p: copy_x_back: 3.813 [ms]
[OGL LOG][lduLduBase.H:319] 
Statistics:
	Time per iteration: 5181 [mu s]
	Time per residual norm calculation: 2116.000000 [mu s]
	Time per iteration and DOF: 0.647625 [ns]
	Retrieve results bandwith 0.524000 [GByte/s]
[OGL LOG][Proc: 0]p: solve_multi_gpu: 7722.26 [ms]
nonecudaGKOCG:  Solving for p, Initial residual = 0.277142, Final residual = 8.37605e-05, No Iterations 1480
time step continuity errors : sum local = 3.98838e-09, global = -4.73735e-21, cumulative = -8.59457e-20
ExecutionTime = 274.28 s  ClockTime = 305 s

Time = 0.004

Courant Number mean: 0.0558523 max: 0.485076
DILUPBiCGStab:  Solving for Ux, Initial residual = 0.00598158, Final residual = 0.000111132, No Iterations 5
DILUPBiCGStab:  Solving for Uy, Initial residual = 0.0145696, Final residual = 0.000243678, No Iterations 5
DILUPBiCGStab:  Solving for Uz, Initial residual = 0.052727, Final residual = 0.00249643, No Iterations 5
[OGL LOG][Proc: 0]: global_index_init: 0.381 [ms]
[OGL LOG][Proc: 0]p_local_coeffs: call_update: 0 [ms]
[OGL LOG][Proc: 0]p_non_local_coeffs: call_update: 0 [ms]
local_interface_nnzs01[OGL LOG][Proc: 0]p: update_local_matrix_data: 41.339 [ms]
[OGL LOG][Proc: 0]p: update_non_local_matrix_data: 0.541 [ms]
[OGL LOG][Proc: 0]p_matrix: call_update: 16.05 [ms]
[OGL LOG][Proc: 0]p_rhs: call_update: 12.055 [ms]
[OGL LOG][Proc: 0]p: init_precond: 0.035 [ms]
[OGL LOG][StoppingCriterion.H:372] Creating stopping criterion with minIter 888 frequency 17
[OGL LOG][Proc: 0]p: generate_solver: 0.023 [ms]
[OGL LOG][Proc: 0]p: solve: 7715.48 [ms]
[OGL LOG][Proc: 0]p: copy_x_back: 4.263 [ms]
[OGL LOG][lduLduBase.H:319] 
Statistics:
	Time per iteration: 5213 [mu s]
	Time per residual norm calculation: 2111.000000 [mu s]
	Time per iteration and DOF: 0.651625 [ns]
	Retrieve results bandwith 0.469000 [GByte/s]
[OGL LOG][Proc: 0]p: solve_multi_gpu: 7767.99 [ms]
nonecudaGKOCG:  Solving for p, Initial residual = 0.284368, Final residual = 9.44632e-05, No Iterations 1480
time step continuity errors : sum local = 4.33109e-09, global = -3.21955e-21, cumulative = -8.91652e-20
[OGL LOG][Proc: 0]: global_index_init: 0.097 [ms]
[OGL LOG][Proc: 0]p_local_coeffs: call_update: 0 [ms]
[OGL LOG][Proc: 0]p_non_local_coeffs: call_update: 0 [ms]
local_interface_nnzs01[OGL LOG][Proc: 0]p: update_local_matrix_data: 41.04 [ms]
[OGL LOG][Proc: 0]p: update_non_local_matrix_data: 0.718 [ms]
[OGL LOG][Proc: 0]p_matrix: call_update: 10.632 [ms]
[OGL LOG][Proc: 0]p_rhs: call_update: 16.856 [ms]
[OGL LOG][Proc: 0]p: init_precond: 0.036 [ms]
[OGL LOG][StoppingCriterion.H:372] Creating stopping criterion with minIter 888 frequency 17
[OGL LOG][Proc: 0]p: generate_solver: 0.025 [ms]
[OGL LOG][Proc: 0]p: solve: 7661.51 [ms]
[OGL LOG][Proc: 0]p: copy_x_back: 3.623 [ms]
[OGL LOG][lduLduBase.H:319] 
Statistics:
	Time per iteration: 5176 [mu s]
	Time per residual norm calculation: 1959.000000 [mu s]
	Time per iteration and DOF: 0.647000 [ns]
	Retrieve results bandwith 0.552000 [GByte/s]
[OGL LOG][Proc: 0]p: solve_multi_gpu: 7713.69 [ms]
nonecudaGKOCG:  Solving for p, Initial residual = 0.251361, Final residual = 8.79337e-05, No Iterations 1480
time step continuity errors : sum local = 4.01902e-09, global = -4.99831e-21, cumulative = -9.41635e-20
ExecutionTime = 292.52 s  ClockTime = 324 s

Time = 0.00425

Courant Number mean: 0.0570919 max: 0.485433
DILUPBiCGStab:  Solving for Ux, Initial residual = 0.00553125, Final residual = 9.67984e-05, No Iterations 5
DILUPBiCGStab:  Solving for Uy, Initial residual = 0.0132669, Final residual = 0.000222425, No Iterations 5
DILUPBiCGStab:  Solving for Uz, Initial residual = 0.0461809, Final residual = 0.00223714, No Iterations 5
[OGL LOG][Proc: 0]: global_index_init: 0.472 [ms]
[OGL LOG][Proc: 0]p_local_coeffs: call_update: 0 [ms]
[OGL LOG][Proc: 0]p_non_local_coeffs: call_update: 0 [ms]
local_interface_nnzs01[OGL LOG][Proc: 0]p: update_local_matrix_data: 41.168 [ms]
[OGL LOG][Proc: 0]p: update_non_local_matrix_data: 0.572 [ms]
[OGL LOG][Proc: 0]p_matrix: call_update: 9.025 [ms]
[OGL LOG][Proc: 0]p_rhs: call_update: 18.724 [ms]
[OGL LOG][Proc: 0]p: init_precond: 0.036 [ms]
[OGL LOG][StoppingCriterion.H:372] Creating stopping criterion with minIter 888 frequency 17
[OGL LOG][Proc: 0]p: generate_solver: 0.027 [ms]
[OGL LOG][Proc: 0]p: solve: 4704.09 [ms]
[OGL LOG][Proc: 0]p: copy_x_back: 3.383 [ms]
[OGL LOG][lduLduBase.H:319] 
Statistics:
	Time per iteration: 5215 [mu s]
	Time per residual norm calculation: 2106.000000 [mu s]
	Time per iteration and DOF: 0.651875 [ns]
	Retrieve results bandwith 0.591000 [GByte/s]
[OGL LOG][Proc: 0]p: solve_multi_gpu: 4755.24 [ms]
nonecudaGKOCG:  Solving for p, Initial residual = 0.253909, Final residual = 9.42545e-05, No Iterations 902
time step continuity errors : sum local = 4.36999e-09, global = -2.56776e-21, cumulative = -9.67313e-20
[OGL LOG][Proc: 0]: global_index_init: 0.161 [ms]
[OGL LOG][Proc: 0]p_local_coeffs: call_update: 0 [ms]
[OGL LOG][Proc: 0]p_non_local_coeffs: call_update: 0 [ms]
local_interface_nnzs01[OGL LOG][Proc: 0]p: update_local_matrix_data: 41.291 [ms]
[OGL LOG][Proc: 0]p: update_non_local_matrix_data: 0.575 [ms]
[OGL LOG][Proc: 0]p_matrix: call_update: 9.811 [ms]
[OGL LOG][Proc: 0]p_rhs: call_update: 17.856 [ms]
[OGL LOG][Proc: 0]p: init_precond: 0.033 [ms]
[OGL LOG][StoppingCriterion.H:372] Creating stopping criterion with minIter 541 frequency 13
[OGL LOG][Proc: 0]p: generate_solver: 0.025 [ms]
[OGL LOG][Proc: 0]p: solve: 3484.12 [ms]
[OGL LOG][Proc: 0]p: copy_x_back: 3.862 [ms]
[OGL LOG][lduLduBase.H:319] 
Statistics:
	Time per iteration: 5247 [mu s]
	Time per residual norm calculation: 2107.000000 [mu s]
	Time per iteration and DOF: 0.655875 [ns]
	Retrieve results bandwith 0.517000 [GByte/s]
[OGL LOG][Proc: 0]p: solve_multi_gpu: 3535.41 [ms]
nonecudaGKOCG:  Solving for p, Initial residual = 0.222924, Final residual = 8.84038e-05, No Iterations 664
time step continuity errors : sum local = 4.01304e-09, global = -6.74339e-21, cumulative = -1.03475e-19
ExecutionTime = 303.62 s  ClockTime = 335 s

Time = 0.0045

Courant Number mean: 0.0582616 max: 0.485806
DILUPBiCGStab:  Solving for Ux, Initial residual = 0.00514296, Final residual = 8.5719e-05, No Iterations 5
DILUPBiCGStab:  Solving for Uy, Initial residual = 0.0122932, Final residual = 0.000192946, No Iterations 5
DILUPBiCGStab:  Solving for Uz, Initial residual = 0.0415384, Final residual = 0.00197134, No Iterations 5
[OGL LOG][Proc: 0]: global_index_init: 0.07 [ms]
[OGL LOG][Proc: 0]p_local_coeffs: call_update: 0 [ms]
[OGL LOG][Proc: 0]p_non_local_coeffs: call_update: 0 [ms]
local_interface_nnzs01[OGL LOG][Proc: 0]p: update_local_matrix_data: 41.114 [ms]
[OGL LOG][Proc: 0]p: update_non_local_matrix_data: 0.608 [ms]
[OGL LOG][Proc: 0]p_matrix: call_update: 8.834 [ms]
[OGL LOG][Proc: 0]p_rhs: call_update: 18.63 [ms]
[OGL LOG][Proc: 0]p: init_precond: 0.035 [ms]
[OGL LOG][StoppingCriterion.H:372] Creating stopping criterion with minIter 398 frequency 11
[OGL LOG][Proc: 0]p: generate_solver: 0.026 [ms]
[OGL LOG][Proc: 0]p: solve: 3715.37 [ms]
[OGL LOG][Proc: 0]p: copy_x_back: 0.756 [ms]
[OGL LOG][lduLduBase.H:319] 
Statistics:
	Time per iteration: 5353 [mu s]
	Time per residual norm calculation: 2109.000000 [mu s]
	Time per iteration and DOF: 0.669125 [ns]
	Retrieve results bandwith 2.645000 [GByte/s]
[OGL LOG][Proc: 0]p: solve_multi_gpu: 3763.72 [ms]
nonecudaGKOCG:  Solving for p, Initial residual = 0.230448, Final residual = 9.42223e-05, No Iterations 694
time step continuity errors : sum local = 4.42889e-09, global = -5.90726e-21, cumulative = -1.09382e-19
[OGL LOG][Proc: 0]: global_index_init: 0.562 [ms]
[OGL LOG][Proc: 0]p_local_coeffs: call_update: 0.001 [ms]
[OGL LOG][Proc: 0]p_non_local_coeffs: call_update: 0 [ms]
local_interface_nnzs01[OGL LOG][Proc: 0]p: update_local_matrix_data: 41.146 [ms]
[OGL LOG][Proc: 0]p: update_non_local_matrix_data: 0.67 [ms]
[OGL LOG][Proc: 0]p_matrix: call_update: 8.855 [ms]
[OGL LOG][Proc: 0]p_rhs: call_update: 18.882 [ms]
[OGL LOG][Proc: 0]p: init_precond: 0.034 [ms]
[OGL LOG][StoppingCriterion.H:372] Creating stopping criterion with minIter 416 frequency 11
[OGL LOG][Proc: 0]p: generate_solver: 0.026 [ms]
[OGL LOG][Proc: 0]p: solve: 3559.3 [ms]
[OGL LOG][Proc: 0]p: copy_x_back: 1.205 [ms]
[OGL LOG][lduLduBase.H:319] 
Statistics:
	Time per iteration: 5296 [mu s]
	Time per residual norm calculation: 2545.000000 [mu s]
	Time per iteration and DOF: 0.662000 [ns]
	Retrieve results bandwith 1.659000 [GByte/s]
[OGL LOG][Proc: 0]p: solve_multi_gpu: 3609.54 [ms]
nonecudaGKOCG:  Solving for p, Initial residual = 0.20315, Final residual = 9.12461e-05, No Iterations 672
time step continuity errors : sum local = 4.03304e-09, global = -2.66401e-21, cumulative = -1.12046e-19
ExecutionTime = 313.8 s  ClockTime = 345 s

Time = 0.00475

Courant Number mean: 0.0593699 max: 0.486103
DILUPBiCGStab:  Solving for Ux, Initial residual = 0.00478476, Final residual = 7.5479e-05, No Iterations 5
DILUPBiCGStab:  Solving for Uy, Initial residual = 0.0113514, Final residual = 0.000180154, No Iterations 5
DILUPBiCGStab:  Solving for Uz, Initial residual = 0.0374043, Final residual = 0.00176603, No Iterations 5
[OGL LOG][Proc: 0]: global_index_init: 0.316 [ms]
[OGL LOG][Proc: 0]p_local_coeffs: call_update: 0 [ms]
[OGL LOG][Proc: 0]p_non_local_coeffs: call_update: 0 [ms]
local_interface_nnzs01[OGL LOG][Proc: 0]p: update_local_matrix_data: 40.8 [ms]
[OGL LOG][Proc: 0]p: update_non_local_matrix_data: 0.96 [ms]
[OGL LOG][Proc: 0]p_matrix: call_update: 8.844 [ms]
[OGL LOG][Proc: 0]p_rhs: call_update: 18.061 [ms]
[OGL LOG][Proc: 0]p: init_precond: 0.035 [ms]
[OGL LOG][StoppingCriterion.H:372] Creating stopping criterion with minIter 403 frequency 11
[OGL LOG][Proc: 0]p: generate_solver: 0.027 [ms]
[OGL LOG][Proc: 0]p: solve: 7841.42 [ms]
[OGL LOG][Proc: 0]p: copy_x_back: 1.367 [ms]
[OGL LOG][lduLduBase.H:319] 
Statistics:
	Time per iteration: 5316 [mu s]
	Time per residual norm calculation: 2258.000000 [mu s]
	Time per iteration and DOF: 0.664500 [ns]
	Retrieve results bandwith 1.463000 [GByte/s]
[OGL LOG][Proc: 0]p: solve_multi_gpu: 7889.93 [ms]
nonecudaGKOCG:  Solving for p, Initial residual = 0.204086, Final residual = 8.73298e-05, No Iterations 1475
time step continuity errors : sum local = 3.72832e-09, global = -2.80859e-21, cumulative = -1.14855e-19
[OGL LOG][Proc: 0]: global_index_init: 0.153 [ms]
[OGL LOG][Proc: 0]p_local_coeffs: call_update: 0 [ms]
[OGL LOG][Proc: 0]p_non_local_coeffs: call_update: 0 [ms]
local_interface_nnzs01[OGL LOG][Proc: 0]p: update_local_matrix_data: 41.22 [ms]
[OGL LOG][Proc: 0]p: update_non_local_matrix_data: 0.673 [ms]
[OGL LOG][Proc: 0]p_matrix: call_update: 9.659 [ms]
[OGL LOG][Proc: 0]p_rhs: call_update: 18.389 [ms]
[OGL LOG][Proc: 0]p: init_precond: 0.034 [ms]
[OGL LOG][StoppingCriterion.H:372] Creating stopping criterion with minIter 885 frequency 17
[OGL LOG][Proc: 0]p: generate_solver: 0.024 [ms]
[OGL LOG][Proc: 0]p: solve: 7672.07 [ms]
[OGL LOG][Proc: 0]p: copy_x_back: 3.742 [ms]
[OGL LOG][lduLduBase.H:319] 
Statistics:
	Time per iteration: 5183 [mu s]
	Time per residual norm calculation: 2111.000000 [mu s]
	Time per iteration and DOF: 0.647875 [ns]
	Retrieve results bandwith 0.534000 [GByte/s]
[OGL LOG][Proc: 0]p: solve_multi_gpu: 7725.31 [ms]
nonecudaGKOCG:  Solving for p, Initial residual = 0.178853, Final residual = 6.84196e-05, No Iterations 1480
time step continuity errors : sum local = 2.92226e-09, global = -5.95199e-21, cumulative = -1.20807e-19
ExecutionTime = 332.18 s  ClockTime = 364 s

Time = 0.005

Courant Number mean: 0.060421 max: 0.486409
DILUPBiCGStab:  Solving for Ux, Initial residual = 0.00448789, Final residual = 6.78555e-05, No Iterations 5
DILUPBiCGStab:  Solving for Uy, Initial residual = 0.0105994, Final residual = 0.000158948, No Iterations 5
DILUPBiCGStab:  Solving for Uz, Initial residual = 0.0339727, Final residual = 0.00152158, No Iterations 5
[OGL LOG][Proc: 0]: global_index_init: 0.087 [ms]
[OGL LOG][Proc: 0]p_local_coeffs: call_update: 0 [ms]
[OGL LOG][Proc: 0]p_non_local_coeffs: call_update: 0 [ms]
local_interface_nnzs01[OGL LOG][Proc: 0]p: update_local_matrix_data: 41.032 [ms]
[OGL LOG][Proc: 0]p: update_non_local_matrix_data: 0.678 [ms]
[OGL LOG][Proc: 0]p_matrix: call_update: 10.903 [ms]
[OGL LOG][Proc: 0]p_rhs: call_update: 16.996 [ms]
[OGL LOG][Proc: 0]p: init_precond: 0.033 [ms]
[OGL LOG][StoppingCriterion.H:372] Creating stopping criterion with minIter 888 frequency 17
[OGL LOG][Proc: 0]p: generate_solver: 0.025 [ms]
[OGL LOG][Proc: 0]p: solve: 7706.27 [ms]
[OGL LOG][Proc: 0]p: copy_x_back: 2.517 [ms]
[OGL LOG][lduLduBase.H:319] 
Statistics:
	Time per iteration: 5206 [mu s]
	Time per residual norm calculation: 2112.000000 [mu s]
	Time per iteration and DOF: 0.650750 [ns]
	Retrieve results bandwith 0.794000 [GByte/s]
[OGL LOG][Proc: 0]p: solve_multi_gpu: 7754.49 [ms]
nonecudaGKOCG:  Solving for p, Initial residual = 0.185607, Final residual = 7.01296e-05, No Iterations 1480
time step continuity errors : sum local = 2.89281e-09, global = -3.42362e-21, cumulative = -1.2423e-19
[OGL LOG][Proc: 0]: global_index_init: 0.106 [ms]
[OGL LOG][Proc: 0]p_local_coeffs: call_update: 0 [ms]
[OGL LOG][Proc: 0]p_non_local_coeffs: call_update: 0 [ms]
local_interface_nnzs01[OGL LOG][Proc: 0]p: update_local_matrix_data: 40.879 [ms]
[OGL LOG][Proc: 0]p: update_non_local_matrix_data: 0.798 [ms]
[OGL LOG][Proc: 0]p_matrix: call_update: 11.547 [ms]
[OGL LOG][Proc: 0]p_rhs: call_update: 15.565 [ms]
[OGL LOG][Proc: 0]p: init_precond: 0.036 [ms]
[OGL LOG][StoppingCriterion.H:372] Creating stopping criterion with minIter 888 frequency 17
[OGL LOG][Proc: 0]p: generate_solver: 0.025 [ms]
[OGL LOG][Proc: 0]p: solve: 7649.78 [ms]
[OGL LOG][Proc: 0]p: copy_x_back: 3.42 [ms]
[OGL LOG][lduLduBase.H:319] 
Statistics:
	Time per iteration: 5168 [mu s]
	Time per residual norm calculation: 2109.000000 [mu s]
	Time per iteration and DOF: 0.646000 [ns]
	Retrieve results bandwith 0.584000 [GByte/s]
[OGL LOG][Proc: 0]p: solve_multi_gpu: 7697.89 [ms]
nonecudaGKOCG:  Solving for p, Initial residual = 0.163267, Final residual = 6.47089e-05, No Iterations 1480
time step continuity errors : sum local = 2.66484e-09, global = -5.2465e-21, cumulative = -1.29477e-19
ExecutionTime = 350.4 s  ClockTime = 382 s

End

Finalising parallel run
 local_interface_nnzs01local_interface_nnzs01local_interface_nnzs01local_interface_nnzs01local_interface_nnzs01local_interface_nnzs01local_interface_nnzs01local_interface_nnzs01local_interface_nnzs01local_interface_nnzs01local_interface_nnzs01local_interface_nnzs01local_interface_nnzs01local_interface_nnzs01local_interface_nnzs01local_interface_nnzs01local_interface_nnzs01local_interface_nnzs01local_interface_nnzs01local_interface_nnzs01local_interface_nnzs01local_interface_nnzs01local_interface_nnzs01local_interface_nnzs01local_interface_nnzs01local_interface_nnzs01local_interface_nnzs01local_interface_nnzs01local_interface_nnzs01local_interface_nnzs01local_interface_nnzs01local_interface_nnzs01local_interface_nnzs01local_interface_nnzs01local_interface_nnzs01local_interface_nnzs01local_interface_nnzs01local_interface_nnzs01local_interface_nnzs01local_interface_nnzs01 local_interface_nnzs01local_interface_nnzs01local_interface_nnzs01local_interface_nnzs01local_interface_nnzs01local_interface_nnzs01local_interface_nnzs01local_interface_nnzs01local_interface_nnzs01local_interface_nnzs01local_interface_nnzs01local_interface_nnzs01local_interface_nnzs01local_interface_nnzs01local_interface_nnzs01local_interface_nnzs01local_interface_nnzs01local_interface_nnzs01local_interface_nnzs01local_interface_nnzs01local_interface_nnzs01local_interface_nnzs01local_interface_nnzs01local_interface_nnzs01local_interface_nnzs01local_interface_nnzs01local_interface_nnzs01local_interface_nnzs01local_interface_nnzs01local_interface_nnzs01local_interface_nnzs01local_interface_nnzs01local_interface_nnzs01local_interface_nnzs01local_interface_nnzs01local_interface_nnzs01local_interface_nnzs01local_interface_nnzs01local_interface_nnzs01local_interface_nnzs01 local_interface_nnzs01local_interface_nnzs01local_interface_nnzs01local_interface_nnzs01local_interface_nnzs01local_interface_nnzs01local_interface_nnzs01local_interface_nnzs01local_interface_nnzs01local_interface_nnzs01local_interface_nnzs01local_interface_nnzs01local_interface_nnzs01local_interface_nnzs01local_interface_nnzs01local_interface_nnzs01local_interface_nnzs01local_interface_nnzs01local_interface_nnzs01local_interface_nnzs01local_interface_nnzs01local_interface_nnzs01local_interface_nnzs01local_interface_nnzs01local_interface_nnzs01local_interface_nnzs01local_interface_nnzs01local_interface_nnzs01local_interface_nnzs01local_interface_nnzs01local_interface_nnzs01local_interface_nnzs01local_interface_nnzs01local_interface_nnzs01local_interface_nnzs01local_interface_nnzs01local_interface_nnzs01local_interface_nnzs01local_interface_nnzs01local_interface_nnzs01 local_interface_nnzs01local_interface_nnzs01local_interface_nnzs01local_interface_nnzs01local_interface_nnzs01local_interface_nnzs01local_interface_nnzs01local_interface_nnzs01local_interface_nnzs01local_interface_nnzs01local_interface_nnzs01local_interface_nnzs01local_interface_nnzs01local_interface_nnzs01local_interface_nnzs01local_interface_nnzs01local_interface_nnzs01local_interface_nnzs01local_interface_nnzs01local_interface_nnzs01local_interface_nnzs01local_interface_nnzs01local_interface_nnzs01local_interface_nnzs01local_interface_nnzs01local_interface_nnzs01local_interface_nnzs01local_interface_nnzs01local_interface_nnzs01local_interface_nnzs01local_interface_nnzs01local_interface_nnzs01local_interface_nnzs01local_interface_nnzs01local_interface_nnzs01local_interface_nnzs01local_interface_nnzs01local_interface_nnzs01local_interface_nnzs01local_interface_nnzs01 local_interface_nnzs01local_interface_nnzs01local_interface_nnzs01local_interface_nnzs01local_interface_nnzs01local_interface_nnzs01local_interface_nnzs01local_interface_nnzs01local_interface_nnzs01local_interface_nnzs01local_interface_nnzs01local_interface_nnzs01local_interface_nnzs01local_interface_nnzs01local_interface_nnzs01local_interface_nnzs01local_interface_nnzs01local_interface_nnzs01local_interface_nnzs01local_interface_nnzs01local_interface_nnzs01local_interface_nnzs01local_interface_nnzs01local_interface_nnzs01local_interface_nnzs01local_interface_nnzs01local_interface_nnzs01local_interface_nnzs01local_interface_nnzs01local_interface_nnzs01local_interface_nnzs01local_interface_nnzs01local_interface_nnzs01local_interface_nnzs01local_interface_nnzs01local_interface_nnzs01local_interface_nnzs01local_interface_nnzs01local_interface_nnzs01local_interface_nnzs01 local_interface_nnzs01local_interface_nnzs01local_interface_nnzs01local_interface_nnzs01local_interface_nnzs01local_interface_nnzs01local_interface_nnzs01local_interface_nnzs01local_interface_nnzs01local_interface_nnzs01local_interface_nnzs01local_interface_nnzs01local_interface_nnzs01local_interface_nnzs01local_interface_nnzs01local_interface_nnzs01local_interface_nnzs01local_interface_nnzs01local_interface_nnzs01local_interface_nnzs01local_interface_nnzs01local_interface_nnzs01local_interface_nnzs01local_interface_nnzs01local_interface_nnzs01local_interface_nnzs01local_interface_nnzs01local_interface_nnzs01local_interface_nnzs01local_interface_nnzs01local_interface_nnzs01local_interface_nnzs01local_interface_nnzs01local_interface_nnzs01local_interface_nnzs01local_interface_nnzs01local_interface_nnzs01local_interface_nnzs01local_interface_nnzs01local_interface_nnzs01 local_interface_nnzs01local_interface_nnzs01local_interface_nnzs01local_interface_nnzs01local_interface_nnzs01local_interface_nnzs01local_interface_nnzs01local_interface_nnzs01local_interface_nnzs01local_interface_nnzs01local_interface_nnzs01local_interface_nnzs01local_interface_nnzs01local_interface_nnzs01local_interface_nnzs01local_interface_nnzs01local_interface_nnzs01local_interface_nnzs01local_interface_nnzs01local_interface_nnzs01local_interface_nnzs01local_interface_nnzs01local_interface_nnzs01local_interface_nnzs01local_interface_nnzs01local_interface_nnzs01local_interface_nnzs01local_interface_nnzs01local_interface_nnzs01local_interface_nnzs01local_interface_nnzs01local_interface_nnzs01local_interface_nnzs01local_interface_nnzs01local_interface_nnzs01local_interface_nnzs01local_interface_nnzs01local_interface_nnzs01local_interface_nnzs01local_interface_nnzs01 local_interface_nnzs01local_interface_nnzs01local_interface_nnzs01local_interface_nnzs01local_interface_nnzs01local_interface_nnzs01local_interface_nnzs01local_interface_nnzs01local_interface_nnzs01local_interface_nnzs01local_interface_nnzs01local_interface_nnzs01local_interface_nnzs01local_interface_nnzs01local_interface_nnzs01local_interface_nnzs01local_interface_nnzs01local_interface_nnzs01local_interface_nnzs01local_interface_nnzs01local_interface_nnzs01local_interface_nnzs01local_interface_nnzs01local_interface_nnzs01local_interface_nnzs01local_interface_nnzs01local_interface_nnzs01local_interface_nnzs01local_interface_nnzs01local_interface_nnzs01local_interface_nnzs01local_interface_nnzs01local_interface_nnzs01local_interface_nnzs01local_interface_nnzs01local_interface_nnzs01local_interface_nnzs01local_interface_nnzs01local_interface_nnzs01local_interface_nnzs01 local_interface_nnzs01local_interface_nnzs01local_interface_nnzs01local_interface_nnzs01local_interface_nnzs01local_interface_nnzs01local_interface_nnzs01local_interface_nnzs01local_interface_nnzs01local_interface_nnzs01local_interface_nnzs01local_interface_nnzs01local_interface_nnzs01local_interface_nnzs01local_interface_nnzs01local_interface_nnzs01local_interface_nnzs01local_interface_nnzs01local_interface_nnzs01local_interface_nnzs01local_interface_nnzs01local_interface_nnzs01local_interface_nnzs01local_interface_nnzs01local_interface_nnzs01local_interface_nnzs01local_interface_nnzs01local_interface_nnzs01local_interface_nnzs01local_interface_nnzs01local_interface_nnzs01local_interface_nnzs01local_interface_nnzs01local_interface_nnzs01local_interface_nnzs01local_interface_nnzs01local_interface_nnzs01local_interface_nnzs01local_interface_nnzs01local_interface_nnzs01 local_interface_nnzs01local_interface_nnzs01local_interface_nnzs01local_interface_nnzs01local_interface_nnzs01local_interface_nnzs01local_interface_nnzs01local_interface_nnzs01local_interface_nnzs01local_interface_nnzs01local_interface_nnzs01local_interface_nnzs01local_interface_nnzs01local_interface_nnzs01local_interface_nnzs01local_interface_nnzs01local_interface_nnzs01local_interface_nnzs01local_interface_nnzs01local_interface_nnzs01local_interface_nnzs01local_interface_nnzs01local_interface_nnzs01local_interface_nnzs01local_interface_nnzs01local_interface_nnzs01local_interface_nnzs01local_interface_nnzs01local_interface_nnzs01local_interface_nnzs01local_interface_nnzs01local_interface_nnzs01local_interface_nnzs01local_interface_nnzs01local_interface_nnzs01local_interface_nnzs01local_interface_nnzs01local_interface_nnzs01local_interface_nnzs01local_interface_nnzs01 local_interface_nnzs01local_interface_nnzs01local_interface_nnzs01local_interface_nnzs01local_interface_nnzs01local_interface_nnzs01local_interface_nnzs01local_interface_nnzs01local_interface_nnzs01local_interface_nnzs01local_interface_nnzs01local_interface_nnzs01local_interface_nnzs01local_interface_nnzs01local_interface_nnzs01local_interface_nnzs01local_interface_nnzs01local_interface_nnzs01local_interface_nnzs01local_interface_nnzs01local_interface_nnzs01local_interface_nnzs01local_interface_nnzs01local_interface_nnzs01local_interface_nnzs01local_interface_nnzs01local_interface_nnzs01local_interface_nnzs01local_interface_nnzs01local_interface_nnzs01local_interface_nnzs01local_interface_nnzs01local_interface_nnzs01local_interface_nnzs01local_interface_nnzs01local_interface_nnzs01local_interface_nnzs01local_interface_nnzs01local_interface_nnzs01local_interface_nnzs01 local_interface_nnzs01local_interface_nnzs01local_interface_nnzs01local_interface_nnzs01local_interface_nnzs01local_interface_nnzs01local_interface_nnzs01local_interface_nnzs01local_interface_nnzs01local_interface_nnzs01local_interface_nnzs01local_interface_nnzs01local_interface_nnzs01local_interface_nnzs01local_interface_nnzs01local_interface_nnzs01local_interface_nnzs01local_interface_nnzs01local_interface_nnzs01local_interface_nnzs01local_interface_nnzs01local_interface_nnzs01local_interface_nnzs01local_interface_nnzs01local_interface_nnzs01local_interface_nnzs01local_interface_nnzs01local_interface_nnzs01local_interface_nnzs01local_interface_nnzs01local_interface_nnzs01local_interface_nnzs01local_interface_nnzs01local_interface_nnzs01local_interface_nnzs01local_interface_nnzs01local_interface_nnzs01local_interface_nnzs01local_interface_nnzs01local_interface_nnzs01 local_interface_nnzs01local_interface_nnzs01local_interface_nnzs01local_interface_nnzs01local_interface_nnzs01local_interface_nnzs01local_interface_nnzs01local_interface_nnzs01local_interface_nnzs01local_interface_nnzs01local_interface_nnzs01local_interface_nnzs01local_interface_nnzs01local_interface_nnzs01local_interface_nnzs01local_interface_nnzs01local_interface_nnzs01local_interface_nnzs01local_interface_nnzs01local_interface_nnzs01local_interface_nnzs01local_interface_nnzs01local_interface_nnzs01local_interface_nnzs01local_interface_nnzs01local_interface_nnzs01local_interface_nnzs01local_interface_nnzs01local_interface_nnzs01local_interface_nnzs01local_interface_nnzs01local_interface_nnzs01local_interface_nnzs01local_interface_nnzs01local_interface_nnzs01local_interface_nnzs01local_interface_nnzs01local_interface_nnzs01local_interface_nnzs01local_interface_nnzs01 local_interface_nnzs01local_interface_nnzs01local_interface_nnzs01local_interface_nnzs01local_interface_nnzs01local_interface_nnzs01local_interface_nnzs01local_interface_nnzs01local_interface_nnzs01local_interface_nnzs01local_interface_nnzs01local_interface_nnzs01local_interface_nnzs01local_interface_nnzs01local_interface_nnzs01local_interface_nnzs01local_interface_nnzs01local_interface_nnzs01local_interface_nnzs01local_interface_nnzs01local_interface_nnzs01local_interface_nnzs01local_interface_nnzs01local_interface_nnzs01local_interface_nnzs01local_interface_nnzs01local_interface_nnzs01local_interface_nnzs01local_interface_nnzs01local_interface_nnzs01local_interface_nnzs01local_interface_nnzs01local_interface_nnzs01local_interface_nnzs01local_interface_nnzs01local_interface_nnzs01local_interface_nnzs01local_interface_nnzs01local_interface_nnzs01local_interface_nnzs01 local_interface_nnzs01local_interface_nnzs01local_interface_nnzs01local_interface_nnzs01local_interface_nnzs01local_interface_nnzs01local_interface_nnzs01local_interface_nnzs01local_interface_nnzs01local_interface_nnzs01local_interface_nnzs01local_interface_nnzs01local_interface_nnzs01local_interface_nnzs01local_interface_nnzs01local_interface_nnzs01local_interface_nnzs01local_interface_nnzs01local_interface_nnzs01local_interface_nnzs01local_interface_nnzs01local_interface_nnzs01local_interface_nnzs01local_interface_nnzs01local_interface_nnzs01local_interface_nnzs01local_interface_nnzs01local_interface_nnzs01local_interface_nnzs01local_interface_nnzs01local_interface_nnzs01local_interface_nnzs01local_interface_nnzs01local_interface_nnzs01local_interface_nnzs01local_interface_nnzs01local_interface_nnzs01local_interface_nnzs01local_interface_nnzs01local_interface_nnzs01 local_interface_nnzs01local_interface_nnzs01local_interface_nnzs01local_interface_nnzs01local_interface_nnzs01local_interface_nnzs01local_interface_nnzs01local_interface_nnzs01local_interface_nnzs01local_interface_nnzs01local_interface_nnzs01local_interface_nnzs01local_interface_nnzs01local_interface_nnzs01local_interface_nnzs01local_interface_nnzs01local_interface_nnzs01local_interface_nnzs01local_interface_nnzs01local_interface_nnzs01local_interface_nnzs01local_interface_nnzs01local_interface_nnzs01local_interface_nnzs01local_interface_nnzs01local_interface_nnzs01local_interface_nnzs01local_interface_nnzs01local_interface_nnzs01local_interface_nnzs01local_interface_nnzs01local_interface_nnzs01local_interface_nnzs01local_interface_nnzs01local_interface_nnzs01local_interface_nnzs01local_interface_nnzs01local_interface_nnzs01local_interface_nnzs01local_interface_nnzs01 local_interface_nnzs01local_interface_nnzs01local_interface_nnzs01local_interface_nnzs01local_interface_nnzs01local_interface_nnzs01local_interface_nnzs01local_interface_nnzs01local_interface_nnzs01local_interface_nnzs01local_interface_nnzs01local_interface_nnzs01local_interface_nnzs01local_interface_nnzs01local_interface_nnzs01local_interface_nnzs01local_interface_nnzs01local_interface_nnzs01local_interface_nnzs01local_interface_nnzs01local_interface_nnzs01local_interface_nnzs01local_interface_nnzs01local_interface_nnzs01local_interface_nnzs01local_interface_nnzs01local_interface_nnzs01local_interface_nnzs01local_interface_nnzs01local_interface_nnzs01local_interface_nnzs01local_interface_nnzs01local_interface_nnzs01local_interface_nnzs01local_interface_nnzs01local_interface_nnzs01local_interface_nnzs01local_interface_nnzs01local_interface_nnzs01local_interface_nnzs01 local_interface_nnzs01local_interface_nnzs01local_interface_nnzs01local_interface_nnzs01local_interface_nnzs01local_interface_nnzs01local_interface_nnzs01local_interface_nnzs01local_interface_nnzs01local_interface_nnzs01local_interface_nnzs01local_interface_nnzs01local_interface_nnzs01local_interface_nnzs01local_interface_nnzs01local_interface_nnzs01local_interface_nnzs01local_interface_nnzs01local_interface_nnzs01local_interface_nnzs01local_interface_nnzs01local_interface_nnzs01local_interface_nnzs01local_interface_nnzs01local_interface_nnzs01local_interface_nnzs01local_interface_nnzs01local_interface_nnzs01local_interface_nnzs01local_interface_nnzs01local_interface_nnzs01local_interface_nnzs01local_interface_nnzs01local_interface_nnzs01local_interface_nnzs01local_interface_nnzs01local_interface_nnzs01local_interface_nnzs01local_interface_nnzs01local_interface_nnzs01 local_interface_nnzs01local_interface_nnzs01local_interface_nnzs01local_interface_nnzs01local_interface_nnzs01local_interface_nnzs01local_interface_nnzs01local_interface_nnzs01local_interface_nnzs01local_interface_nnzs01local_interface_nnzs01local_interface_nnzs01local_interface_nnzs01local_interface_nnzs01local_interface_nnzs01local_interface_nnzs01local_interface_nnzs01local_interface_nnzs01local_interface_nnzs01local_interface_nnzs01local_interface_nnzs01local_interface_nnzs01local_interface_nnzs01local_interface_nnzs01local_interface_nnzs01local_interface_nnzs01local_interface_nnzs01local_interface_nnzs01local_interface_nnzs01local_interface_nnzs01local_interface_nnzs01local_interface_nnzs01local_interface_nnzs01local_interface_nnzs01local_interface_nnzs01local_interface_nnzs01local_interface_nnzs01local_interface_nnzs01local_interface_nnzs01local_interface_nnzs01 local_interface_nnzs01local_interface_nnzs01local_interface_nnzs01local_interface_nnzs01local_interface_nnzs01local_interface_nnzs01local_interface_nnzs01local_interface_nnzs01local_interface_nnzs01local_interface_nnzs01local_interface_nnzs01local_interface_nnzs01local_interface_nnzs01local_interface_nnzs01local_interface_nnzs01local_interface_nnzs01local_interface_nnzs01local_interface_nnzs01local_interface_nnzs01local_interface_nnzs01local_interface_nnzs01local_interface_nnzs01local_interface_nnzs01local_interface_nnzs01local_interface_nnzs01local_interface_nnzs01local_interface_nnzs01local_interface_nnzs01local_interface_nnzs01local_interface_nnzs01local_interface_nnzs01local_interface_nnzs01local_interface_nnzs01local_interface_nnzs01local_interface_nnzs01local_interface_nnzs01local_interface_nnzs01local_interface_nnzs01local_interface_nnzs01local_interface_nnzs01 local_interface_nnzs01local_interface_nnzs01local_interface_nnzs01local_interface_nnzs01local_interface_nnzs01local_interface_nnzs01local_interface_nnzs01local_interface_nnzs01local_interface_nnzs01local_interface_nnzs01local_interface_nnzs01local_interface_nnzs01local_interface_nnzs01local_interface_nnzs01local_interface_nnzs01local_interface_nnzs01local_interface_nnzs01local_interface_nnzs01local_interface_nnzs01local_interface_nnzs01local_interface_nnzs01local_interface_nnzs01local_interface_nnzs01local_interface_nnzs01local_interface_nnzs01local_interface_nnzs01local_interface_nnzs01local_interface_nnzs01local_interface_nnzs01local_interface_nnzs01local_interface_nnzs01local_interface_nnzs01local_interface_nnzs01local_interface_nnzs01local_interface_nnzs01local_interface_nnzs01local_interface_nnzs01local_interface_nnzs01local_interface_nnzs01local_interface_nnzs01 local_interface_nnzs01local_interface_nnzs01local_interface_nnzs01local_interface_nnzs01local_interface_nnzs01local_interface_nnzs01local_interface_nnzs01local_interface_nnzs01local_interface_nnzs01local_interface_nnzs01local_interface_nnzs01local_interface_nnzs01local_interface_nnzs01local_interface_nnzs01local_interface_nnzs01local_interface_nnzs01local_interface_nnzs01local_interface_nnzs01local_interface_nnzs01local_interface_nnzs01local_interface_nnzs01local_interface_nnzs01local_interface_nnzs01local_interface_nnzs01local_interface_nnzs01local_interface_nnzs01local_interface_nnzs01local_interface_nnzs01local_interface_nnzs01local_interface_nnzs01local_interface_nnzs01local_interface_nnzs01local_interface_nnzs01local_interface_nnzs01local_interface_nnzs01local_interface_nnzs01local_interface_nnzs01local_interface_nnzs01local_interface_nnzs01local_interface_nnzs01 local_interface_nnzs01local_interface_nnzs01local_interface_nnzs01local_interface_nnzs01local_interface_nnzs01local_interface_nnzs01local_interface_nnzs01local_interface_nnzs01local_interface_nnzs01local_interface_nnzs01local_interface_nnzs01local_interface_nnzs01local_interface_nnzs01local_interface_nnzs01local_interface_nnzs01local_interface_nnzs01local_interface_nnzs01local_interface_nnzs01local_interface_nnzs01local_interface_nnzs01local_interface_nnzs01local_interface_nnzs01local_interface_nnzs01local_interface_nnzs01local_interface_nnzs01local_interface_nnzs01local_interface_nnzs01local_interface_nnzs01local_interface_nnzs01local_interface_nnzs01local_interface_nnzs01local_interface_nnzs01local_interface_nnzs01local_interface_nnzs01local_interface_nnzs01local_interface_nnzs01local_interface_nnzs01local_interface_nnzs01local_interface_nnzs01local_interface_nnzs01 local_interface_nnzs01local_interface_nnzs01local_interface_nnzs01local_interface_nnzs01local_interface_nnzs01local_interface_nnzs01local_interface_nnzs01local_interface_nnzs01local_interface_nnzs01local_interface_nnzs01local_interface_nnzs01local_interface_nnzs01local_interface_nnzs01local_interface_nnzs01local_interface_nnzs01local_interface_nnzs01local_interface_nnzs01local_interface_nnzs01local_interface_nnzs01local_interface_nnzs01local_interface_nnzs01local_interface_nnzs01local_interface_nnzs01local_interface_nnzs01local_interface_nnzs01local_interface_nnzs01local_interface_nnzs01local_interface_nnzs01local_interface_nnzs01local_interface_nnzs01local_interface_nnzs01local_interface_nnzs01local_interface_nnzs01local_interface_nnzs01local_interface_nnzs01local_interface_nnzs01local_interface_nnzs01local_interface_nnzs01local_interface_nnzs01local_interface_nnzs01 local_interface_nnzs01local_interface_nnzs01local_interface_nnzs01local_interface_nnzs01local_interface_nnzs01local_interface_nnzs01local_interface_nnzs01local_interface_nnzs01local_interface_nnzs01local_interface_nnzs01local_interface_nnzs01local_interface_nnzs01local_interface_nnzs01local_interface_nnzs01local_interface_nnzs01local_interface_nnzs01local_interface_nnzs01local_interface_nnzs01local_interface_nnzs01local_interface_nnzs01local_interface_nnzs01local_interface_nnzs01local_interface_nnzs01local_interface_nnzs01local_interface_nnzs01local_interface_nnzs01local_interface_nnzs01local_interface_nnzs01local_interface_nnzs01local_interface_nnzs01local_interface_nnzs01local_interface_nnzs01local_interface_nnzs01local_interface_nnzs01local_interface_nnzs01local_interface_nnzs01local_interface_nnzs01local_interface_nnzs01local_interface_nnzs01local_interface_nnzs01 local_interface_nnzs01local_interface_nnzs01local_interface_nnzs01local_interface_nnzs01local_interface_nnzs01local_interface_nnzs01local_interface_nnzs01local_interface_nnzs01local_interface_nnzs01local_interface_nnzs01local_interface_nnzs01local_interface_nnzs01local_interface_nnzs01local_interface_nnzs01local_interface_nnzs01local_interface_nnzs01local_interface_nnzs01local_interface_nnzs01local_interface_nnzs01local_interface_nnzs01local_interface_nnzs01local_interface_nnzs01local_interface_nnzs01local_interface_nnzs01local_interface_nnzs01local_interface_nnzs01local_interface_nnzs01local_interface_nnzs01local_interface_nnzs01local_interface_nnzs01local_interface_nnzs01local_interface_nnzs01local_interface_nnzs01local_interface_nnzs01local_interface_nnzs01local_interface_nnzs01local_interface_nnzs01local_interface_nnzs01local_interface_nnzs01local_interface_nnzs01 local_interface_nnzs01local_interface_nnzs01local_interface_nnzs01local_interface_nnzs01local_interface_nnzs01local_interface_nnzs01local_interface_nnzs01local_interface_nnzs01local_interface_nnzs01local_interface_nnzs01local_interface_nnzs01local_interface_nnzs01local_interface_nnzs01local_interface_nnzs01local_interface_nnzs01local_interface_nnzs01local_interface_nnzs01local_interface_nnzs01local_interface_nnzs01local_interface_nnzs01local_interface_nnzs01local_interface_nnzs01local_interface_nnzs01local_interface_nnzs01local_interface_nnzs01local_interface_nnzs01local_interface_nnzs01local_interface_nnzs01local_interface_nnzs01local_interface_nnzs01local_interface_nnzs01local_interface_nnzs01local_interface_nnzs01local_interface_nnzs01local_interface_nnzs01local_interface_nnzs01local_interface_nnzs01local_interface_nnzs01local_interface_nnzs01local_interface_nnzs01 local_interface_nnzs01local_interface_nnzs01local_interface_nnzs01local_interface_nnzs01local_interface_nnzs01local_interface_nnzs01local_interface_nnzs01local_interface_nnzs01local_interface_nnzs01local_interface_nnzs01local_interface_nnzs01local_interface_nnzs01local_interface_nnzs01local_interface_nnzs01local_interface_nnzs01local_interface_nnzs01local_interface_nnzs01local_interface_nnzs01local_interface_nnzs01local_interface_nnzs01local_interface_nnzs01local_interface_nnzs01local_interface_nnzs01local_interface_nnzs01local_interface_nnzs01local_interface_nnzs01local_interface_nnzs01local_interface_nnzs01local_interface_nnzs01local_interface_nnzs01local_interface_nnzs01local_interface_nnzs01local_interface_nnzs01local_interface_nnzs01local_interface_nnzs01local_interface_nnzs01local_interface_nnzs01local_interface_nnzs01local_interface_nnzs01local_interface_nnzs01 local_interface_nnzs01local_interface_nnzs01local_interface_nnzs01local_interface_nnzs01local_interface_nnzs01local_interface_nnzs01local_interface_nnzs01local_interface_nnzs01local_interface_nnzs01local_interface_nnzs01local_interface_nnzs01local_interface_nnzs01local_interface_nnzs01local_interface_nnzs01local_interface_nnzs01local_interface_nnzs01local_interface_nnzs01local_interface_nnzs01local_interface_nnzs01local_interface_nnzs01local_interface_nnzs01local_interface_nnzs01local_interface_nnzs01local_interface_nnzs01local_interface_nnzs01local_interface_nnzs01local_interface_nnzs01local_interface_nnzs01local_interface_nnzs01local_interface_nnzs01local_interface_nnzs01local_interface_nnzs01local_interface_nnzs01local_interface_nnzs01local_interface_nnzs01local_interface_nnzs01local_interface_nnzs01local_interface_nnzs01local_interface_nnzs01local_interface_nnzs01 local_interface_nnzs01local_interface_nnzs01local_interface_nnzs01local_interface_nnzs01local_interface_nnzs01local_interface_nnzs01local_interface_nnzs01local_interface_nnzs01local_interface_nnzs01local_interface_nnzs01local_interface_nnzs01local_interface_nnzs01local_interface_nnzs01local_interface_nnzs01local_interface_nnzs01local_interface_nnzs01local_interface_nnzs01local_interface_nnzs01local_interface_nnzs01local_interface_nnzs01local_interface_nnzs01local_interface_nnzs01local_interface_nnzs01local_interface_nnzs01local_interface_nnzs01local_interface_nnzs01local_interface_nnzs01local_interface_nnzs01local_interface_nnzs01local_interface_nnzs01local_interface_nnzs01local_interface_nnzs01local_interface_nnzs01local_interface_nnzs01local_interface_nnzs01local_interface_nnzs01local_interface_nnzs01local_interface_nnzs01local_interface_nnzs01local_interface_nnzs01 local_interface_nnzs01local_interface_nnzs01local_interface_nnzs01local_interface_nnzs01local_interface_nnzs01local_interface_nnzs01local_interface_nnzs01local_interface_nnzs01local_interface_nnzs01local_interface_nnzs01local_interface_nnzs01local_interface_nnzs01local_interface_nnzs01local_interface_nnzs01local_interface_nnzs01local_interface_nnzs01local_interface_nnzs01local_interface_nnzs01local_interface_nnzs01local_interface_nnzs01local_interface_nnzs01local_interface_nnzs01local_interface_nnzs01local_interface_nnzs01local_interface_nnzs01local_interface_nnzs01local_interface_nnzs01local_interface_nnzs01local_interface_nnzs01local_interface_nnzs01local_interface_nnzs01local_interface_nnzs01local_interface_nnzs01local_interface_nnzs01local_interface_nnzs01local_interface_nnzs01local_interface_nnzs01local_interface_nnzs01local_interface_nnzs01local_interface_nnzs01