/*---------------------------------------------------------------------------*\
| =========                 |                                                 |
| \\      /  F ield         | OpenFOAM: The Open Source CFD Toolbox           |
|  \\    /   O peration     | Version:  2306                                  |
|   \\  /    A nd           | Website:  www.openfoam.com                      |
|    \\/     M anipulation  |                                                 |
\*---------------------------------------------------------------------------*/
Build  : a6e826bd55-20230630 OPENFOAM=2306 version=v2306
Arch   : "LSB;label=32;scalar=64"
Exec   : simpleFoam -parallel -case /home/greole/data/code/exasim_project/micro_benchmarks/WindsorBody/workspace/f6c4c3db911c882e700cd27467c72e02/case
Date   : Aug 27 2023
Time   : 12:09:17
Host   : nla-gpu2.ianm.kit.edu
PID    : 3065129
I/O    : uncollated
Case   : /home/greole/data/code/exasim_project/micro_benchmarks/WindsorBody/workspace/f6c4c3db911c882e700cd27467c72e02/case
nProcs : 8
Hosts  :
(
    (nla-gpu2.ianm.kit.edu 8)
)
Pstream initialized with:
    floatTransfer      : false
    nProcsSimpleSum    : 0
    nonBlockingExchange: 0 (tuning: 0)
    exchange algorithm : -1
    commsType          : nonBlocking
    polling iterations : 0
trapFpe: Floating point exception trapping enabled (FOAM_SIGFPE).
fileModificationChecking : Monitoring run-time modified files using timeStampMaster (fileModificationSkew 5, maxFileModificationPolls 20)
allowSystemOperations : Allowing user-supplied system call operations

// * * * * * * * * * * * * * * * * * * * * * * * * * * * * * * * * * * * * * //
Create time

--> FOAM Warning : 
    From void* Foam::dlLibraryTable::openLibrary(const Foam::fileName&, bool)
    in file db/dynamicLibrary/dlLibraryTable/dlLibraryTable.C at line 188
    Could not load "libpetscFoam.so"
libpetscFoam.so: cannot open shared object file: No such file or directory
Create mesh for time = 0


SIMPLE: convergence criteria
    field p	 tolerance 1e-08
    field U	 tolerance 1e-08
    field k	 tolerance 1e-08
    field omega	 tolerance 1e-08
    field nuTilda	 tolerance 1e-08

Reading field p

Reading field U

Reading/calculating face flux field phi

Selecting incompressible transport model Newtonian
Selecting turbulence model type RAS
Selecting RAS turbulence model SpalartAllmaras
Selecting patchDistMethod meshWave
ft2 term: inactive
RAS
{
    RASModel        SpalartAllmaras;
    turbulence      on;
    printCoeffs     on;
    sigmaNut        0.66666;
    kappa           0.41;
    Cb1             0.1355;
    Cb2             0.622;
    Cw2             0.3;
    Cw3             2;
    Cv1             7.1;
    Cs              0.3;
    ck              0.07000000000000001;
    ft2             false;
    Ct3             1.2;
    Ct4             0.5;
}

No MRF models present

Creating finite volume options from "system/fvOptions"

Selecting finite volume options type velocityDampingConstraint
    Source: velocityDamping
    - selecting all cells
    - selected 6307136 cell(s) with volume 27.82583051606852

Starting time loop

--> FOAM Warning : 
    From bool Foam::functionObjectList::read()
    in file db/functionObjects/functionObjectList/functionObjectList.C at line 1035
    Reading "system/controlDict" at line 2 to 41
    Entry 'lref' is not a dictionary
--> FOAM Warning : 
    From bool Foam::functionObjectList::read()
    in file db/functionObjects/functionObjectList/functionObjectList.C at line 1035
    Reading "system/controlDict" at line 2 to 41
    Entry 'Aref' is not a dictionary
--> FOAM Warning : 
    From bool Foam::functionObjectList::read()
    in file db/functionObjects/functionObjectList/functionObjectList.C at line 1035
    Reading "system/controlDict" at line 2 to 41
    Entry 'yawAngle' is not a dictionary
--> FOAM Warning : 
    From bool Foam::functionObjectList::read()
    in file db/functionObjects/functionObjectList/functionObjectList.C at line 1035
    Reading "system/controlDict" at line 2 to 41
    Entry 'lDomain' is not a dictionary
--> FOAM Warning : 
    From bool Foam::functionObjectList::read()
    in file db/functionObjects/functionObjectList/functionObjectList.C at line 1035
    Reading "system/controlDict" at line 2 to 41
    Entry 'bDomain' is not a dictionary
--> FOAM Warning : 
    From bool Foam::functionObjectList::read()
    in file db/functionObjects/functionObjectList/functionObjectList.C at line 1035
    Reading "system/controlDict" at line 2 to 41
    Entry 'hDomain' is not a dictionary
--> FOAM Warning : 
    From bool Foam::functionObjectList::read()
    in file db/functionObjects/functionObjectList/functionObjectList.C at line 1035
    Reading "system/controlDict" at line 2 to 41
    Entry 'xCenter' is not a dictionary
--> FOAM Warning : 
    From bool Foam::functionObjectList::read()
    in file db/functionObjects/functionObjectList/functionObjectList.C at line 1035
    Reading "system/controlDict" at line 2 to 41
    Entry 'yCenter' is not a dictionary
--> FOAM Warning : 
    From bool Foam::functionObjectList::read()
    in file db/functionObjects/functionObjectList/functionObjectList.C at line 1035
    Reading "system/controlDict" at line 2 to 41
    Entry 'zCenter' is not a dictionary
--> FOAM Warning : 
    From bool Foam::functionObjectList::read()
    in file db/functionObjects/functionObjectList/functionObjectList.C at line 1035
    Reading "system/controlDict" at line 2 to 41
    Entry 'inletPatch' is not a dictionary
--> FOAM Warning : 
    From bool Foam::functionObjectList::read()
    in file db/functionObjects/functionObjectList/functionObjectList.C at line 1035
    Reading "system/controlDict" at line 2 to 41
    Entry 'outletPatch' is not a dictionary
--> FOAM Warning : 
    From bool Foam::functionObjectList::read()
    in file db/functionObjects/functionObjectList/functionObjectList.C at line 1035
    Reading "system/controlDict" at line 2 to 41
    Entry 'wallPatches' is not a dictionary
--> FOAM Warning : 
    From bool Foam::functionObjectList::read()
    in file db/functionObjects/functionObjectList/functionObjectList.C at line 1035
    Reading "system/controlDict" at line 2 to 41
    Entry 'forcesWallPatches' is not a dictionary
--> FOAM Warning : 
    From bool Foam::functionObjectList::read()
    in file db/functionObjects/functionObjectList/functionObjectList.C at line 1035
    Reading "system/controlDict" at line 2 to 41
    Entry 'symmPatches' is not a dictionary
--> FOAM Warning : 
    From bool Foam::functionObjectList::read()
    in file db/functionObjects/functionObjectList/functionObjectList.C at line 1035
    Reading "system/controlDict" at line 2 to 41
    Entry 'Uinf' is not a dictionary
--> FOAM Warning : 
    From bool Foam::functionObjectList::read()
    in file db/functionObjects/functionObjectList/functionObjectList.C at line 1035
    Reading "system/controlDict" at line 2 to 41
    Entry 'UinfMag' is not a dictionary
--> FOAM Warning : 
    From bool Foam::functionObjectList::read()
    in file db/functionObjects/functionObjectList/functionObjectList.C at line 1035
    Reading "system/controlDict" at line 2 to 41
    Entry 'nu' is not a dictionary
--> FOAM Warning : 
    From bool Foam::functionObjectList::read()
    in file db/functionObjects/functionObjectList/functionObjectList.C at line 1035
    Reading "system/controlDict" at line 2 to 41
    Entry 'pref' is not a dictionary
--> FOAM Warning : 
    From bool Foam::functionObjectList::read()
    in file db/functionObjects/functionObjectList/functionObjectList.C at line 1035
    Reading "system/controlDict" at line 2 to 41
    Entry 'viscRatio' is not a dictionary
--> FOAM Warning : 
    From bool Foam::functionObjectList::read()
    in file db/functionObjects/functionObjectList/functionObjectList.C at line 1035
    Reading "system/controlDict" at line 2 to 41
    Entry 'Tu' is not a dictionary
--> FOAM Warning : 
    From bool Foam::functionObjectList::read()
    in file db/functionObjects/functionObjectList/functionObjectList.C at line 1035
    Reading "system/controlDict" at line 2 to 41
    Entry 'LESturbModel' is not a dictionary
--> FOAM Warning : 
    From bool Foam::functionObjectList::read()
    in file db/functionObjects/functionObjectList/functionObjectList.C at line 1035
    Reading "system/controlDict" at line 2 to 41
    Entry 'RASturbModel' is not a dictionary
--> FOAM Warning : 
    From bool Foam::functionObjectList::read()
    in file db/functionObjects/functionObjectList/functionObjectList.C at line 1035
    Reading "system/controlDict" at line 2 to 41
    Entry 'deltaTurb' is not a dictionary
--> FOAM Warning : 
    From bool Foam::functionObjectList::read()
    in file db/functionObjects/functionObjectList/functionObjectList.C at line 1035
    Reading "system/controlDict" at line 2 to 41
    Entry 'dt' is not a dictionary
--> FOAM Warning : 
    From bool Foam::functionObjectList::read()
    in file db/functionObjects/functionObjectList/functionObjectList.C at line 1035
    Reading "system/controlDict" at line 2 to 41
    Entry 'tAvg' is not a dictionary
--> FOAM Warning : 
    From bool Foam::functionObjectList::read()
    in file db/functionObjects/functionObjectList/functionObjectList.C at line 1035
    Reading "system/controlDict" at line 2 to 41
    Entry 'tEnd' is not a dictionary
--> FOAM Warning : 
    From bool Foam::functionObjectList::read()
    in file db/functionObjects/functionObjectList/functionObjectList.C at line 1035
    Reading "system/controlDict" at line 2 to 41
    Entry 'writeInterval_' is not a dictionary
--> FOAM Warning : 
    From bool Foam::functionObjectList::read()
    in file db/functionObjects/functionObjectList/functionObjectList.C at line 1035
    Reading "system/controlDict" at line 2 to 41
    Entry 'nCores' is not a dictionary
--> FOAM Warning : 
    From bool Foam::functionObjectList::read()
    in file db/functionObjects/functionObjectList/functionObjectList.C at line 1035
    Reading "system/controlDict" at line 2 to 41
    Entry 'interpScheme' is not a dictionary
--> FOAM Warning : 
    From bool Foam::functionObjectList::read()
    in file db/functionObjects/functionObjectList/functionObjectList.C at line 1035
    Reading "system/controlDict" at line 2 to 41
    Entry 'probeField' is not a dictionary
wallShearStress wallShearStress:
    processing wall patches: 
        Windsor_Body
        CFDWT_Floor
        Windsor_Pins
        Windsor_Base

pressure calc_cp:
    Operating mode: staticCoeff
    Not including hydrostatic effects

forceCoeffs forceCoeffsAll:
    rho: rhoInf
    Freestream density (rhoInf) set to 1
    Not including porosity effects
    magUInf: 40
    lRef   : 0.6375
    Aref   : 0.1124
    rhoInf : 1
    Selecting all coefficients
    - Drag force: Cd
    - Drag force front: Cd(f)
    - Drag force rear: Cd(r)
    - Lift force: Cl
    - Lift force front: Cl(f)
    - Lift force rear: Cl(r)
    - Pitch moment: CmPitch
    - Roll moment: CmRoll
    - Yaw moment: CmYaw
    - Side force: Cs
    - Side force front: Cs(f)
    - Side force rear: Cs(r)


forceCoeffs dragCoeffBase:
    rho: rhoInf
    Freestream density (rhoInf) set to 1
    Not including porosity effects
    magUInf: 40
    lRef   : 0.6375
    Aref   : 0.1124
    rhoInf : 1
    Selecting coefficients:
    - Drag force: Cd


--> FOAM Warning : 
    From virtual void Foam::probes::findElements(const Foam::fvMesh&)
    in file probes/probes.C at line 249
    Location (-2 0 1.3) seems to be on multiple domains: cell 382251 on my domain 0 and cell 560069 on some other domain.
This might happen if the probe location is on a processor patch. Change the location slightly to prevent this.
--> FOAM Warning : 
    From virtual void Foam::probes::findElements(const Foam::fvMesh&)
    in file probes/probes.C at line 263
    Location (-2 0 1.3) seems to be on multiple domains: cell 1138605 on my domain 0 and face 2399942 on some other domain.
This might happen if the probe location is on a processor patch. Change the location slightly to prevent this.
Time = 1

velocityDampingConstraint velocityDamping damped 0 (0%) of cells, with max limit 300
[INFO] MatrixAssemblyU: 871.299 [ms]
[OGL LOG][lduLduBase.H:119] Initialising OGL
	OGL commit:  4647ee1+
	Branch: PersistentDeviceIdGuard 
	Build type: Release
	Ginkgo version: 1.5.0 ( develop)
	Ginkgo commit: 4292ffdee
	MPI is GPU aware: 1
	Forces host buffer based communication: 0
	CPU ranks per GPU: 1
	Matrix format: Coo
	End OGL_INFO
[OGL LOG][Proc: 0]: global_index_init: 0.399 [ms]
[OGL LOG][Proc: 0]Ux_local_cols: call_init: 0.043 [ms]
[OGL LOG][Proc: 0]Ux_local_rows: call_init: 0.004 [ms]
[OGL LOG][Proc: 0]Ux_local_ldu_map: call_init: 0.003 [ms]
[OGL LOG][Proc: 0]Ux_local_coeffs: call_init: 0.013 [ms]
[OGL LOG][Proc: 0]Ux_non_local_cols: call_init: 0.003 [ms]
[OGL LOG][Proc: 0]Ux_non_local_rows: call_init: 0.003 [ms]
[OGL LOG][Proc: 0]Ux_non_local_ldu_map: call_init: 0.003 [ms]
[OGL LOG][Proc: 0]Ux_non_local_coeffs: call_init: 0.003 [ms]
[OGL LOG][Proc: 0]Ux: init_local_sparsity_pattern: 144.74 [ms]
[OGL LOG][Proc: 0]Ux: init_non_local_sparsity_pattern: 0.883 [ms]
[OGL LOG][Proc: 0]Ux: update_local_matrix_data: 15.386 [ms]
[OGL LOG][Proc: 0]Ux: update_non_local_matrix_data: 0.104 [ms]
[OGL LOG][Proc: 0]device_partition: call_init: 0.47 [ms]
[OGL LOG][Proc: 0]Ux_matrix: call_init: 75.476 [ms]
[OGL LOG][Proc: 0]Ux_rhs: call_init: 3.935 [ms]
[OGL LOG][Proc: 0]Ux_solution: call_init: 3.622 [ms]
[OGL LOG][Preconditioner.H:121] Generate preconditioner BJ MaxBlockSize 1
[OGL LOG][Proc: 0]Ux: init_precond: 4.481 [ms]
[OGL LOG][StoppingCriterion.H:373] Creating stopping criterion with minIter 0 frequency 1
[OGL LOG][Proc: 0]Ux: generate_solver: 0.015 [ms]
[OGL LOG][Proc: 0]Ux: solve: 1314.411 [ms]
[OGL LOG][Proc: 0]Ux: copy_x_back: 2.088 [ms]
[OGL LOG][lduLduBase.H:336] 
Statistics:
	Time per iteration: 54767 [mu s]
	Time per residual norm calculation: 1150.000000 [mu s]
	Time per iteration and DOF: 8.683339 [ns]
	Retrieve results bandwidth 3.013000 [GByte/s]
[OGL LOG][Proc: 0]Ux: solve_multi_gpu: 1405.661 [ms]
BJhipGKOBiCGStab:  Solving for Ux, Initial residual = 1.000000000000421, Final residual = 0.05874861765602176, No Iterations 24
[OGL LOG][lduLduBase.H:119] Initialising OGL
	OGL commit:  4647ee1+
	Branch: PersistentDeviceIdGuard 
	Build type: Release
	Ginkgo version: 1.5.0 ( develop)
	Ginkgo commit: 4292ffdee
	MPI is GPU aware: 1
	Forces host buffer based communication: 0
	CPU ranks per GPU: 1
	Matrix format: Coo
	End OGL_INFO
[OGL LOG][Proc: 0]: global_index_init: 0.026 [ms]
[OGL LOG][Proc: 0]Uy_local_cols: call_init: 0.009000000000000001 [ms]
[OGL LOG][Proc: 0]Uy_local_rows: call_init: 0.004 [ms]
[OGL LOG][Proc: 0]Uy_local_ldu_map: call_init: 0.004 [ms]
[OGL LOG][Proc: 0]Uy_local_coeffs: call_init: 0.004 [ms]
[OGL LOG][Proc: 0]Uy_non_local_cols: call_init: 0.004 [ms]
[OGL LOG][Proc: 0]Uy_non_local_rows: call_init: 0.003 [ms]
[OGL LOG][Proc: 0]Uy_non_local_ldu_map: call_init: 0.003 [ms]
[OGL LOG][Proc: 0]Uy_non_local_coeffs: call_init: 0.004 [ms]
[OGL LOG][Proc: 0]Uy: init_local_sparsity_pattern: 142.193 [ms]
[OGL LOG][Proc: 0]Uy: init_non_local_sparsity_pattern: 0.796 [ms]
[OGL LOG][Proc: 0]Uy: update_local_matrix_data: 15.482 [ms]
[OGL LOG][Proc: 0]Uy: update_non_local_matrix_data: 0.068 [ms]
[OGL LOG][Proc: 0]Uy_matrix: call_init: 62.86 [ms]
[OGL LOG][Proc: 0]Uy_rhs: call_init: 4.686 [ms]
[OGL LOG][Proc: 0]Uy_solution: call_init: 0.8140000000000001 [ms]
[OGL LOG][Preconditioner.H:121] Generate preconditioner BJ MaxBlockSize 1
[OGL LOG][Proc: 0]Uy: init_precond: 0.634 [ms]
[OGL LOG][StoppingCriterion.H:373] Creating stopping criterion with minIter 0 frequency 1
[OGL LOG][Proc: 0]Uy: generate_solver: 0.002 [ms]
[OGL LOG][Proc: 0]Uy: solve: 142.353 [ms]
[OGL LOG][Proc: 0]Uy: copy_x_back: 2.269 [ms]
[OGL LOG][lduLduBase.H:336] 
Statistics:
	Time per iteration: 2737 [mu s]
	Time per residual norm calculation: 296.000000 [mu s]
	Time per iteration and DOF: 0.433953 [ns]
	Retrieve results bandwidth 2.773000 [GByte/s]
[OGL LOG][Proc: 0]Uy: solve_multi_gpu: 214.723 [ms]
BJhipGKOBiCGStab:  Solving for Uy, Initial residual = 1.000000000000022, Final residual = 0.06026270725670441, No Iterations 52
[OGL LOG][lduLduBase.H:119] Initialising OGL
	OGL commit:  4647ee1+
	Branch: PersistentDeviceIdGuard 
	Build type: Release
	Ginkgo version: 1.5.0 ( develop)
	Ginkgo commit: 4292ffdee
	MPI is GPU aware: 1
	Forces host buffer based communication: 0
	CPU ranks per GPU: 1
	Matrix format: Coo
	End OGL_INFO
[OGL LOG][Proc: 0]: global_index_init: 0.308 [ms]
[OGL LOG][Proc: 0]Uz_local_cols: call_init: 0.008 [ms]
[OGL LOG][Proc: 0]Uz_local_rows: call_init: 0.004 [ms]
[OGL LOG][Proc: 0]Uz_local_ldu_map: call_init: 0.004 [ms]
[OGL LOG][Proc: 0]Uz_local_coeffs: call_init: 0.005 [ms]
[OGL LOG][Proc: 0]Uz_non_local_cols: call_init: 0.004 [ms]
[OGL LOG][Proc: 0]Uz_non_local_rows: call_init: 0.004 [ms]
[OGL LOG][Proc: 0]Uz_non_local_ldu_map: call_init: 0.004 [ms]
[OGL LOG][Proc: 0]Uz_non_local_coeffs: call_init: 0.003 [ms]
[OGL LOG][Proc: 0]Uz: init_local_sparsity_pattern: 150.28 [ms]
[OGL LOG][Proc: 0]Uz: init_non_local_sparsity_pattern: 5.381 [ms]
[OGL LOG][Proc: 0]Uz: update_local_matrix_data: 15.993 [ms]
[OGL LOG][Proc: 0]Uz: update_non_local_matrix_data: 0.07200000000000001 [ms]
[OGL LOG][Proc: 0]Uz_matrix: call_init: 55.759 [ms]
[OGL LOG][Proc: 0]Uz_rhs: call_init: 4.013 [ms]
[OGL LOG][Proc: 0]Uz_solution: call_init: 1.072 [ms]
[OGL LOG][Preconditioner.H:121] Generate preconditioner BJ MaxBlockSize 1
[OGL LOG][Proc: 0]Uz: init_precond: 0.648 [ms]
[OGL LOG][StoppingCriterion.H:373] Creating stopping criterion with minIter 0 frequency 1
[OGL LOG][Proc: 0]Uz: generate_solver: 0.002 [ms]
[OGL LOG][Proc: 0]Uz: solve: 43.333 [ms]
[OGL LOG][Proc: 0]Uz: copy_x_back: 2.087 [ms]
[OGL LOG][lduLduBase.H:336] 
Statistics:
	Time per iteration: 43333 [mu s]
	Time per residual norm calculation: 302.000000 [mu s]
	Time per iteration and DOF: 6.870472 [ns]
	Retrieve results bandwidth 3.015000 [GByte/s]
[OGL LOG][Proc: 0]Uz: solve_multi_gpu: 108.027 [ms]
BJhipGKOBiCGStab:  Solving for Uz, Initial residual = 1.00000000000002, Final residual = 0.09952964467305395, No Iterations 1
[INFO] MomentumPredictor: 2510.366 [ms]
[INFO] MatrixAssemblyPI: 117.73 [ms]
[INFO] MatrixAssemblyPII: 57.168 [ms]
DICPCG:  Solving for p, Initial residual = 1, Final residual = 0.009982810752438297, No Iterations 417
[INFO] SolveP: 7270.155 [ms]
time step continuity errors : sum local = 0.003664480258621594, global = 7.392292259082654e-05, cumulative = 7.392292259082654e-05
[INFO] postSolveP: 33.222 [ms]
[OGL LOG][lduLduBase.H:119] Initialising OGL
	OGL commit:  4647ee1+
	Branch: PersistentDeviceIdGuard 
	Build type: Release
	Ginkgo version: 1.5.0 ( develop)
	Ginkgo commit: 4292ffdee
	MPI is GPU aware: 1
	Forces host buffer based communication: 0
	CPU ranks per GPU: 1
	Matrix format: Coo
	End OGL_INFO
[OGL LOG][Proc: 0]: global_index_init: 0.187 [ms]
[OGL LOG][Proc: 0]nuTilda_local_cols: call_init: 0.008 [ms]
[OGL LOG][Proc: 0]nuTilda_local_rows: call_init: 0.004 [ms]
[OGL LOG][Proc: 0]nuTilda_local_ldu_map: call_init: 0.004 [ms]
[OGL LOG][Proc: 0]nuTilda_local_coeffs: call_init: 0.005 [ms]
[OGL LOG][Proc: 0]nuTilda_non_local_cols: call_init: 0.004 [ms]
[OGL LOG][Proc: 0]nuTilda_non_local_rows: call_init: 0.004 [ms]
[OGL LOG][Proc: 0]nuTilda_non_local_ldu_map: call_init: 0.004 [ms]
[OGL LOG][Proc: 0]nuTilda_non_local_coeffs: call_init: 0.004 [ms]
[OGL LOG][Proc: 0]nuTilda: init_local_sparsity_pattern: 139.824 [ms]
[OGL LOG][Proc: 0]nuTilda: init_non_local_sparsity_pattern: 13.434 [ms]
[OGL LOG][Proc: 0]nuTilda: update_local_matrix_data: 15.663 [ms]
[OGL LOG][Proc: 0]nuTilda: update_non_local_matrix_data: 0.06900000000000001 [ms]
[OGL LOG][Proc: 0]nuTilda_matrix: call_init: 50.482 [ms]
[OGL LOG][Proc: 0]nuTilda_rhs: call_init: 3.548 [ms]
[OGL LOG][Proc: 0]nuTilda_solution: call_init: 4.595 [ms]
[OGL LOG][Preconditioner.H:121] Generate preconditioner BJ MaxBlockSize 1
[OGL LOG][Proc: 0]nuTilda: init_precond: 0.612 [ms]
[OGL LOG][StoppingCriterion.H:373] Creating stopping criterion with minIter 0 frequency 1
[OGL LOG][Proc: 0]nuTilda: generate_solver: 0.003 [ms]
[OGL LOG][Proc: 0]nuTilda: solve: 46.804 [ms]
[OGL LOG][Proc: 0]nuTilda: copy_x_back: 2.112 [ms]
[OGL LOG][lduLduBase.H:336] 
Statistics:
	Time per iteration: 23402 [mu s]
	Time per residual norm calculation: 246.000000 [mu s]
	Time per iteration and DOF: 3.710400 [ns]
	Retrieve results bandwidth 2.979000 [GByte/s]
[OGL LOG][Proc: 0]nuTilda: solve_multi_gpu: 109.294 [ms]
BJhipGKOBiCGStab:  Solving for nuTilda, Initial residual = 0.9999999999995103, Final residual = 0.09386952602326791, No Iterations 2
[INFO] TimeStep: 11570.791 [ms]
ExecutionTime = 23.95 s  ClockTime = 24 s

--> FOAM Warning : 
    From virtual bool Foam::functionObjects::fieldSelection::checkSelection()
    in file functionObjects/fieldSelections/fieldSelection/fieldSelection.C at line 166
    Field k not found
--> FOAM Warning : 
    From virtual bool Foam::functionObjects::fieldSelection::checkSelection()
    in file functionObjects/fieldSelections/fieldSelection/fieldSelection.C at line 166
    Field gammaInt not found
--> FOAM Warning : 
    From virtual bool Foam::functionObjects::fieldSelection::checkSelection()
    in file functionObjects/fieldSelections/fieldSelection/fieldSelection.C at line 166
    Field omega not found
--> FOAM Warning : 
    From virtual bool Foam::functionObjects::fieldSelection::checkSelection()
    in file functionObjects/fieldSelections/fieldSelection/fieldSelection.C at line 166
    Field ReThetat not found
--> FOAM Warning : 
    From virtual bool Foam::functionObjects::fieldSelection::checkSelection()
    in file functionObjects/fieldSelections/fieldSelection/fieldSelection.C at line 166
    Field epsilon not found
--> FOAM Warning : 
    From virtual bool Foam::functionObjects::solverFieldSelection::updateSelection()
    in file functionObjects/fieldSelections/solverFieldSelection/solverFieldSelection.C at line 85
    Valid solver fields are: 3(U nuTilda p)Time = 2

velocityDampingConstraint velocityDamping damped 0 (0%) of cells, with max limit 300
[INFO] MatrixAssemblyU: 825.5890000000001 [ms]
[OGL LOG][Proc: 0]: global_index_init: 0.064 [ms]
[OGL LOG][Proc: 0]Ux_local_coeffs: call_update: 0.005 [ms]
[OGL LOG][Proc: 0]Ux_non_local_coeffs: call_update: 0 [ms]
[OGL LOG][Proc: 0]Ux: update_local_matrix_data: 15.595 [ms]
[OGL LOG][Proc: 0]Ux: update_non_local_matrix_data: 0.096 [ms]
[OGL LOG][Proc: 0]Ux_matrix: call_update: 6.986 [ms]
[OGL LOG][Proc: 0]Ux_rhs: call_update: 1.455 [ms]
[OGL LOG][Preconditioner.H:121] Generate preconditioner BJ MaxBlockSize 1
[OGL LOG][Proc: 0]Ux: init_precond: 0.435 [ms]
[OGL LOG][StoppingCriterion.H:373] Creating stopping criterion with minIter 28 frequency 1
[OGL LOG][Proc: 0]Ux: generate_solver: 0.002 [ms]
[OGL LOG][Proc: 0]Ux: solve: 58.97 [ms]
[OGL LOG][Proc: 0]Ux: copy_x_back: 2.212 [ms]
[OGL LOG][lduLduBase.H:336] 
Statistics:
	Time per iteration: 4212 [mu s]
	Time per residual norm calculation: 260.000000 [mu s]
	Time per iteration and DOF: 0.667815 [ns]
	Retrieve results bandwidth 2.844000 [GByte/s]
[OGL LOG][Proc: 0]Ux: solve_multi_gpu: 71.178 [ms]
BJhipGKOBiCGStab:  Solving for Ux, Initial residual = 0.6036782804509226, Final residual = 0.03711747926594302, No Iterations 14
[OGL LOG][Proc: 0]: global_index_init: 0.05 [ms]
[OGL LOG][Proc: 0]Uy_local_coeffs: call_update: 0 [ms]
[OGL LOG][Proc: 0]Uy_non_local_coeffs: call_update: 0 [ms]
[OGL LOG][Proc: 0]Uy: update_local_matrix_data: 15.858 [ms]
[OGL LOG][Proc: 0]Uy: update_non_local_matrix_data: 0.066 [ms]
[OGL LOG][Proc: 0]Uy_matrix: call_update: 6.369 [ms]
[OGL LOG][Proc: 0]Uy_rhs: call_update: 1.394 [ms]
[OGL LOG][Preconditioner.H:121] Generate preconditioner BJ MaxBlockSize 1
[OGL LOG][Proc: 0]Uy: init_precond: 0.442 [ms]
[OGL LOG][StoppingCriterion.H:373] Creating stopping criterion with minIter 62 frequency 2
[OGL LOG][Proc: 0]Uy: generate_solver: 0.002 [ms]
[OGL LOG][Proc: 0]Uy: solve: 81.473 [ms]
[OGL LOG][Proc: 0]Uy: copy_x_back: 2.096 [ms]
[OGL LOG][lduLduBase.H:336] 
Statistics:
	Time per iteration: 2628 [mu s]
	Time per residual norm calculation: 261.000000 [mu s]
	Time per iteration and DOF: 0.416671 [ns]
	Retrieve results bandwidth 3.002000 [GByte/s]
[OGL LOG][Proc: 0]Uy: solve_multi_gpu: 92.93600000000001 [ms]
BJhipGKOBiCGStab:  Solving for Uy, Initial residual = 0.9969823201544716, Final residual = 0.001852666225924812, No Iterations 31
[OGL LOG][Proc: 0]: global_index_init: 0.054 [ms]
[OGL LOG][Proc: 0]Uz_local_coeffs: call_update: 0 [ms]
[OGL LOG][Proc: 0]Uz_non_local_coeffs: call_update: 0 [ms]
[OGL LOG][Proc: 0]Uz: update_local_matrix_data: 16.257 [ms]
[OGL LOG][Proc: 0]Uz: update_non_local_matrix_data: 0.08700000000000001 [ms]
[OGL LOG][Proc: 0]Uz_matrix: call_update: 8.398 [ms]
[OGL LOG][Proc: 0]Uz_rhs: call_update: 4.722 [ms]
[OGL LOG][Preconditioner.H:121] Generate preconditioner BJ MaxBlockSize 1
[OGL LOG][Proc: 0]Uz: init_precond: 0.434 [ms]
[OGL LOG][StoppingCriterion.H:373] Creating stopping criterion with minIter 1 frequency 1
[OGL LOG][Proc: 0]Uz: generate_solver: 0.002 [ms]
[OGL LOG][Proc: 0]Uz: solve: 62.654 [ms]
[OGL LOG][Proc: 0]Uz: copy_x_back: 2.176 [ms]
[OGL LOG][lduLduBase.H:336] 
Statistics:
	Time per iteration: 5695 [mu s]
	Time per residual norm calculation: 300.000000 [mu s]
	Time per iteration and DOF: 0.902945 [ns]
	Retrieve results bandwidth 2.891000 [GByte/s]
[OGL LOG][Proc: 0]Uz: solve_multi_gpu: 79.495 [ms]
BJhipGKOBiCGStab:  Solving for Uz, Initial residual = 0.9999900090828079, Final residual = 0.07552630744555362, No Iterations 11
[INFO] MomentumPredictor: 342.386 [ms]
[INFO] MatrixAssemblyPI: 114.171 [ms]
[INFO] MatrixAssemblyPII: 57.565 [ms]
DICPCG:  Solving for p, Initial residual = 0.2203148574852725, Final residual = 0.00212389820652971, No Iterations 335
[INFO] SolveP: 5813.763 [ms]
time step continuity errors : sum local = 0.04379441122839796, global = 0.002037732042250111, cumulative = 0.002111654964840938
[INFO] postSolveP: 32.296 [ms]
[OGL LOG][Proc: 0]: global_index_init: 2.443 [ms]
[OGL LOG][Proc: 0]nuTilda_local_coeffs: call_update: 0 [ms]
[OGL LOG][Proc: 0]nuTilda_non_local_coeffs: call_update: 0 [ms]
[OGL LOG][Proc: 0]nuTilda: update_local_matrix_data: 18.793 [ms]
[OGL LOG][Proc: 0]nuTilda: update_non_local_matrix_data: 0.08400000000000001 [ms]
[OGL LOG][Proc: 0]nuTilda_matrix: call_update: 6.642 [ms]
[OGL LOG][Proc: 0]nuTilda_rhs: call_update: 0.729 [ms]
[OGL LOG][Preconditioner.H:121] Generate preconditioner BJ MaxBlockSize 1
[OGL LOG][Proc: 0]nuTilda: init_precond: 0.43 [ms]
[OGL LOG][StoppingCriterion.H:373] Creating stopping criterion with minIter 3 frequency 1
[OGL LOG][Proc: 0]nuTilda: generate_solver: 0.002 [ms]
[OGL LOG][Proc: 0]nuTilda: solve: 45.453 [ms]
[OGL LOG][Proc: 0]nuTilda: copy_x_back: 2.073 [ms]
[OGL LOG][lduLduBase.H:336] 
Statistics:
	Time per iteration: 22726 [mu s]
	Time per residual norm calculation: 313.000000 [mu s]
	Time per iteration and DOF: 3.603220 [ns]
	Retrieve results bandwidth 3.035000 [GByte/s]
[OGL LOG][Proc: 0]nuTilda: solve_multi_gpu: 56.433 [ms]
BJhipGKOBiCGStab:  Solving for nuTilda, Initial residual = 0.4032031988563894, Final residual = 0.006111111639942122, No Iterations 2
[INFO] TimeStep: 7700.023 [ms]
ExecutionTime = 32.31 s  ClockTime = 33 s

Time = 3

velocityDampingConstraint velocityDamping damped 893 (0.01%) of cells, with max limit 300
[INFO] MatrixAssemblyU: 849.64 [ms]
[OGL LOG][Proc: 0]: global_index_init: 0.027 [ms]
[OGL LOG][Proc: 0]Ux_local_coeffs: call_update: 0 [ms]
[OGL LOG][Proc: 0]Ux_non_local_coeffs: call_update: 0 [ms]
[OGL LOG][Proc: 0]Ux: update_local_matrix_data: 15.323 [ms]
[OGL LOG][Proc: 0]Ux: update_non_local_matrix_data: 0.106 [ms]
[OGL LOG][Proc: 0]Ux_matrix: call_update: 9.454000000000001 [ms]
[OGL LOG][Proc: 0]Ux_rhs: call_update: 1.76 [ms]
[OGL LOG][Preconditioner.H:121] Generate preconditioner BJ MaxBlockSize 1
[OGL LOG][Proc: 0]Ux: init_precond: 0.44 [ms]
[OGL LOG][StoppingCriterion.H:373] Creating stopping criterion with minIter 17 frequency 1
[OGL LOG][Proc: 0]Ux: generate_solver: 0.002 [ms]
[OGL LOG][Proc: 0]Ux: solve: 60.815 [ms]
[OGL LOG][Proc: 0]Ux: copy_x_back: 2.066 [ms]
[OGL LOG][lduLduBase.H:336] 
Statistics:
	Time per iteration: 4343 [mu s]
	Time per residual norm calculation: 297.000000 [mu s]
	Time per iteration and DOF: 0.688585 [ns]
	Retrieve results bandwidth 3.045000 [GByte/s]
[OGL LOG][Proc: 0]Ux: solve_multi_gpu: 75.61199999999999 [ms]
BJhipGKOBiCGStab:  Solving for Ux, Initial residual = 0.1299787919809125, Final residual = 0.007972981764441469, No Iterations 14
[OGL LOG][Proc: 0]: global_index_init: 0.055 [ms]
[OGL LOG][Proc: 0]Uy_local_coeffs: call_update: 0 [ms]
[OGL LOG][Proc: 0]Uy_non_local_coeffs: call_update: 0 [ms]
[OGL LOG][Proc: 0]Uy: update_local_matrix_data: 15.616 [ms]
[OGL LOG][Proc: 0]Uy: update_non_local_matrix_data: 0.07000000000000001 [ms]
[OGL LOG][Proc: 0]Uy_matrix: call_update: 7.086 [ms]
[OGL LOG][Proc: 0]Uy_rhs: call_update: 1.842 [ms]
[OGL LOG][Preconditioner.H:121] Generate preconditioner BJ MaxBlockSize 1
[OGL LOG][Proc: 0]Uy: init_precond: 0.468 [ms]
[OGL LOG][StoppingCriterion.H:373] Creating stopping criterion with minIter 37 frequency 1
[OGL LOG][Proc: 0]Uy: generate_solver: 0.001 [ms]
[OGL LOG][Proc: 0]Uy: solve: 72.40000000000001 [ms]
[OGL LOG][Proc: 0]Uy: copy_x_back: 2.07 [ms]
[OGL LOG][lduLduBase.H:336] 
Statistics:
	Time per iteration: 3810 [mu s]
	Time per residual norm calculation: 265.000000 [mu s]
	Time per iteration and DOF: 0.604078 [ns]
	Retrieve results bandwidth 3.040000 [GByte/s]
[OGL LOG][Proc: 0]Uy: solve_multi_gpu: 84.90600000000001 [ms]
BJhipGKOBiCGStab:  Solving for Uy, Initial residual = 0.3007820473595165, Final residual = 0.009263926278277778, No Iterations 19
[OGL LOG][Proc: 0]: global_index_init: 0.016 [ms]
[OGL LOG][Proc: 0]Uz_local_coeffs: call_update: 0 [ms]
[OGL LOG][Proc: 0]Uz_non_local_coeffs: call_update: 0 [ms]
[OGL LOG][Proc: 0]Uz: update_local_matrix_data: 16.018 [ms]
[OGL LOG][Proc: 0]Uz: update_non_local_matrix_data: 0.074 [ms]
[OGL LOG][Proc: 0]Uz_matrix: call_update: 6.792 [ms]
[OGL LOG][Proc: 0]Uz_rhs: call_update: 1.655 [ms]
[OGL LOG][Preconditioner.H:121] Generate preconditioner BJ MaxBlockSize 1
[OGL LOG][Proc: 0]Uz: init_precond: 0.43 [ms]
[OGL LOG][StoppingCriterion.H:373] Creating stopping criterion with minIter 13 frequency 1
[OGL LOG][Proc: 0]Uz: generate_solver: 0.002 [ms]
[OGL LOG][Proc: 0]Uz: solve: 57.597 [ms]
[OGL LOG][Proc: 0]Uz: copy_x_back: 2.1 [ms]
[OGL LOG][lduLduBase.H:336] 
Statistics:
	Time per iteration: 4799 [mu s]
	Time per residual norm calculation: 298.000000 [mu s]
	Time per iteration and DOF: 0.760884 [ns]
	Retrieve results bandwidth 2.996000 [GByte/s]
[OGL LOG][Proc: 0]Uz: solve_multi_gpu: 69.676 [ms]
BJhipGKOBiCGStab:  Solving for Uz, Initial residual = 0.2728060968316518, Final residual = 0.02280582205718274, No Iterations 12
[INFO] MomentumPredictor: 327.516 [ms]
[INFO] MatrixAssemblyPI: 116.382 [ms]
[INFO] MatrixAssemblyPII: 57.582 [ms]
DICPCG:  Solving for p, Initial residual = 0.1773862812587443, Final residual = 0.001768768018578306, No Iterations 300
[INFO] SolveP: 5255.33 [ms]
time step continuity errors : sum local = 0.0194051342887115, global = 0.0008090649869326319, cumulative = 0.00292071995177357
[INFO] postSolveP: 31.912 [ms]
[OGL LOG][Proc: 0]: global_index_init: 1.18 [ms]
[OGL LOG][Proc: 0]nuTilda_local_coeffs: call_update: 0 [ms]
[OGL LOG][Proc: 0]nuTilda_non_local_coeffs: call_update: 0 [ms]
[OGL LOG][Proc: 0]nuTilda: update_local_matrix_data: 18.938 [ms]
[OGL LOG][Proc: 0]nuTilda: update_non_local_matrix_data: 0.08600000000000001 [ms]
[OGL LOG][Proc: 0]nuTilda_matrix: call_update: 10.698 [ms]
[OGL LOG][Proc: 0]nuTilda_rhs: call_update: 0.724 [ms]
[OGL LOG][Preconditioner.H:121] Generate preconditioner BJ MaxBlockSize 1
[OGL LOG][Proc: 0]nuTilda: init_precond: 0.439 [ms]
[OGL LOG][StoppingCriterion.H:373] Creating stopping criterion with minIter 2 frequency 1
[OGL LOG][Proc: 0]nuTilda: generate_solver: 0.002 [ms]
[OGL LOG][Proc: 0]nuTilda: solve: 48.134 [ms]
[OGL LOG][Proc: 0]nuTilda: copy_x_back: 2.055 [ms]
[OGL LOG][lduLduBase.H:336] 
Statistics:
	Time per iteration: 24067 [mu s]
	Time per residual norm calculation: 298.000000 [mu s]
	Time per iteration and DOF: 3.815837 [ns]
	Retrieve results bandwidth 3.062000 [GByte/s]
[OGL LOG][Proc: 0]nuTilda: solve_multi_gpu: 63.155 [ms]
BJhipGKOBiCGStab:  Solving for nuTilda, Initial residual = 0.1884367712961437, Final residual = 0.01360058753800745, No Iterations 2
bounding nuTilda, min: -9.417823204701298e-06 max: 0.0008877995701551064 average: 7.998225376924299e-05
[INFO] TimeStep: 7186.381 [ms]
ExecutionTime = 40.17 s  ClockTime = 40 s

Time = 4

velocityDampingConstraint velocityDamping damped 3 (0%) of cells, with max limit 300
[INFO] MatrixAssemblyU: 867.732 [ms]
[OGL LOG][Proc: 0]: global_index_init: 0.04 [ms]
[OGL LOG][Proc: 0]Ux_local_coeffs: call_update: 0 [ms]
[OGL LOG][Proc: 0]Ux_non_local_coeffs: call_update: 0 [ms]
[OGL LOG][Proc: 0]Ux: update_local_matrix_data: 15.677 [ms]
[OGL LOG][Proc: 0]Ux: update_non_local_matrix_data: 0.068 [ms]
[OGL LOG][Proc: 0]Ux_matrix: call_update: 6.116000000000001 [ms]
[OGL LOG][Proc: 0]Ux_rhs: call_update: 1.452 [ms]
[OGL LOG][Preconditioner.H:121] Generate preconditioner BJ MaxBlockSize 1
[OGL LOG][Proc: 0]Ux: init_precond: 0.431 [ms]
[OGL LOG][StoppingCriterion.H:373] Creating stopping criterion with minIter 16 frequency 1
[OGL LOG][Proc: 0]Ux: generate_solver: 0.002 [ms]
[OGL LOG][Proc: 0]Ux: solve: 53.565 [ms]
[OGL LOG][Proc: 0]Ux: copy_x_back: 2.075 [ms]
[OGL LOG][lduLduBase.H:336] 
Statistics:
	Time per iteration: 5356 [mu s]
	Time per residual norm calculation: 297.000000 [mu s]
	Time per iteration and DOF: 0.849197 [ns]
	Retrieve results bandwidth 3.032000 [GByte/s]
[OGL LOG][Proc: 0]Ux: solve_multi_gpu: 64.69 [ms]
BJhipGKOBiCGStab:  Solving for Ux, Initial residual = 0.09655056082826748, Final residual = 0.009598670785285092, No Iterations 10
[OGL LOG][Proc: 0]: global_index_init: 0.043 [ms]
[OGL LOG][Proc: 0]Uy_local_coeffs: call_update: 0 [ms]
[OGL LOG][Proc: 0]Uy_non_local_coeffs: call_update: 0 [ms]
[OGL LOG][Proc: 0]Uy: update_local_matrix_data: 16.132 [ms]
[OGL LOG][Proc: 0]Uy: update_non_local_matrix_data: 0.065 [ms]
[OGL LOG][Proc: 0]Uy_matrix: call_update: 5.588 [ms]
[OGL LOG][Proc: 0]Uy_rhs: call_update: 1.489 [ms]
[OGL LOG][Preconditioner.H:121] Generate preconditioner BJ MaxBlockSize 1
[OGL LOG][Proc: 0]Uy: init_precond: 0.427 [ms]
[OGL LOG][StoppingCriterion.H:373] Creating stopping criterion with minIter 22 frequency 1
[OGL LOG][Proc: 0]Uy: generate_solver: 0.002 [ms]
[OGL LOG][Proc: 0]Uy: solve: 64.831 [ms]
[OGL LOG][Proc: 0]Uy: copy_x_back: 2.063 [ms]
[OGL LOG][lduLduBase.H:336] 
Statistics:
	Time per iteration: 4987 [mu s]
	Time per residual norm calculation: 292.000000 [mu s]
	Time per iteration and DOF: 0.790692 [ns]
	Retrieve results bandwidth 3.050000 [GByte/s]
[OGL LOG][Proc: 0]Uy: solve_multi_gpu: 75.44800000000001 [ms]
BJhipGKOBiCGStab:  Solving for Uy, Initial residual = 0.1545988597680029, Final residual = 0.01541960315805082, No Iterations 13
[OGL LOG][Proc: 0]: global_index_init: 0.036 [ms]
[OGL LOG][Proc: 0]Uz_local_coeffs: call_update: 0 [ms]
[OGL LOG][Proc: 0]Uz_non_local_coeffs: call_update: 0 [ms]
[OGL LOG][Proc: 0]Uz: update_local_matrix_data: 16.349 [ms]
[OGL LOG][Proc: 0]Uz: update_non_local_matrix_data: 0.065 [ms]
[OGL LOG][Proc: 0]Uz_matrix: call_update: 6.093 [ms]
[OGL LOG][Proc: 0]Uz_rhs: call_update: 1.079 [ms]
[OGL LOG][Preconditioner.H:121] Generate preconditioner BJ MaxBlockSize 1
[OGL LOG][Proc: 0]Uz: init_precond: 0.5570000000000001 [ms]
[OGL LOG][StoppingCriterion.H:373] Creating stopping criterion with minIter 14 frequency 1
[OGL LOG][Proc: 0]Uz: generate_solver: 0.002 [ms]
[OGL LOG][Proc: 0]Uz: solve: 55.275 [ms]
[OGL LOG][Proc: 0]Uz: copy_x_back: 2.042 [ms]
[OGL LOG][lduLduBase.H:336] 
Statistics:
	Time per iteration: 5527 [mu s]
	Time per residual norm calculation: 248.000000 [mu s]
	Time per iteration and DOF: 0.876309 [ns]
	Retrieve results bandwidth 3.081000 [GByte/s]
[OGL LOG][Proc: 0]Uz: solve_multi_gpu: 66.108 [ms]
BJhipGKOBiCGStab:  Solving for Uz, Initial residual = 0.2389901766107696, Final residual = 0.02341183277134126, No Iterations 10
[INFO] MomentumPredictor: 304.772 [ms]
[INFO] MatrixAssemblyPI: 118.381 [ms]
[INFO] MatrixAssemblyPII: 57.105 [ms]
DICPCG:  Solving for p, Initial residual = 0.1248283805107764, Final residual = 0.001246259228856527, No Iterations 125
[INFO] SolveP: 2196.599 [ms]
time step continuity errors : sum local = 0.01452320225403491, global = -0.002523487315241713, cumulative = 0.0003972326365318567
[INFO] postSolveP: 32.761 [ms]
[OGL LOG][Proc: 0]: global_index_init: 0.324 [ms]
[OGL LOG][Proc: 0]nuTilda_local_coeffs: call_update: 0 [ms]
[OGL LOG][Proc: 0]nuTilda_non_local_coeffs: call_update: 0 [ms]
[OGL LOG][Proc: 0]nuTilda: update_local_matrix_data: 15.471 [ms]
[OGL LOG][Proc: 0]nuTilda: update_non_local_matrix_data: 0.08799999999999999 [ms]
[OGL LOG][Proc: 0]nuTilda_matrix: call_update: 8.183 [ms]
[OGL LOG][Proc: 0]nuTilda_rhs: call_update: 0.8120000000000001 [ms]
[OGL LOG][Preconditioner.H:121] Generate preconditioner BJ MaxBlockSize 1
[OGL LOG][Proc: 0]nuTilda: init_precond: 0.421 [ms]
[OGL LOG][StoppingCriterion.H:373] Creating stopping criterion with minIter 2 frequency 1
[OGL LOG][Proc: 0]nuTilda: generate_solver: 0.002 [ms]
[OGL LOG][Proc: 0]nuTilda: solve: 44.035 [ms]
[OGL LOG][Proc: 0]nuTilda: copy_x_back: 2.086 [ms]
[OGL LOG][lduLduBase.H:336] 
Statistics:
	Time per iteration: 22017 [mu s]
	Time per residual norm calculation: 303.000000 [mu s]
	Time per iteration and DOF: 3.490808 [ns]
	Retrieve results bandwidth 3.016000 [GByte/s]
[OGL LOG][Proc: 0]nuTilda: solve_multi_gpu: 57.371 [ms]
BJhipGKOBiCGStab:  Solving for nuTilda, Initial residual = 0.1083795314456294, Final residual = 0.009017307012121559, No Iterations 2
bounding nuTilda, min: -5.258816194719977e-06 max: 0.001008290726326892 average: 8.511538131899858e-05
[INFO] TimeStep: 4107.807 [ms]
ExecutionTime = 44.98 s  ClockTime = 45 s

Time = 5

velocityDampingConstraint velocityDamping damped 61 (0%) of cells, with max limit 300
[INFO] MatrixAssemblyU: 849.812 [ms]
[OGL LOG][Proc: 0]: global_index_init: 0.032 [ms]
[OGL LOG][Proc: 0]Ux_local_coeffs: call_update: 0 [ms]
[OGL LOG][Proc: 0]Ux_non_local_coeffs: call_update: 0 [ms]
[OGL LOG][Proc: 0]Ux: update_local_matrix_data: 16.214 [ms]
[OGL LOG][Proc: 0]Ux: update_non_local_matrix_data: 0.108 [ms]
[OGL LOG][Proc: 0]Ux_matrix: call_update: 11.925 [ms]
[OGL LOG][Proc: 0]Ux_rhs: call_update: 0.763 [ms]
[OGL LOG][Preconditioner.H:121] Generate preconditioner BJ MaxBlockSize 1
[OGL LOG][Proc: 0]Ux: init_precond: 0.427 [ms]
[OGL LOG][StoppingCriterion.H:373] Creating stopping criterion with minIter 12 frequency 1
[OGL LOG][Proc: 0]Ux: generate_solver: 0.002 [ms]
[OGL LOG][Proc: 0]Ux: solve: 59.737 [ms]
[OGL LOG][Proc: 0]Ux: copy_x_back: 2.147 [ms]
[OGL LOG][lduLduBase.H:336] 
Statistics:
	Time per iteration: 5430 [mu s]
	Time per residual norm calculation: 245.000000 [mu s]
	Time per iteration and DOF: 0.860930 [ns]
	Retrieve results bandwidth 2.931000 [GByte/s]
[OGL LOG][Proc: 0]Ux: solve_multi_gpu: 76.092 [ms]
BJhipGKOBiCGStab:  Solving for Ux, Initial residual = 0.05385618455892645, Final residual = 0.004482981518617094, No Iterations 11
[OGL LOG][Proc: 0]: global_index_init: 0.066 [ms]
[OGL LOG][Proc: 0]Uy_local_coeffs: call_update: 0 [ms]
[OGL LOG][Proc: 0]Uy_non_local_coeffs: call_update: 0 [ms]
[OGL LOG][Proc: 0]Uy: update_local_matrix_data: 15.679 [ms]
[OGL LOG][Proc: 0]Uy: update_non_local_matrix_data: 0.066 [ms]
[OGL LOG][Proc: 0]Uy_matrix: call_update: 6.234 [ms]
[OGL LOG][Proc: 0]Uy_rhs: call_update: 1.899 [ms]
[OGL LOG][Preconditioner.H:121] Generate preconditioner BJ MaxBlockSize 1
[OGL LOG][Proc: 0]Uy: init_precond: 0.519 [ms]
[OGL LOG][StoppingCriterion.H:373] Creating stopping criterion with minIter 15 frequency 1
[OGL LOG][Proc: 0]Uy: generate_solver: 0.002 [ms]
[OGL LOG][Proc: 0]Uy: solve: 53.897 [ms]
[OGL LOG][Proc: 0]Uy: copy_x_back: 2.118 [ms]
[OGL LOG][lduLduBase.H:336] 
Statistics:
	Time per iteration: 4899 [mu s]
	Time per residual norm calculation: 295.000000 [mu s]
	Time per iteration and DOF: 0.776739 [ns]
	Retrieve results bandwidth 2.971000 [GByte/s]
[OGL LOG][Proc: 0]Uy: solve_multi_gpu: 65.739 [ms]
BJhipGKOBiCGStab:  Solving for Uy, Initial residual = 0.1152775206865254, Final residual = 0.009397165694249402, No Iterations 11
[OGL LOG][Proc: 0]: global_index_init: 0.05 [ms]
[OGL LOG][Proc: 0]Uz_local_coeffs: call_update: 0 [ms]
[OGL LOG][Proc: 0]Uz_non_local_coeffs: call_update: 0 [ms]
[OGL LOG][Proc: 0]Uz: update_local_matrix_data: 15.806 [ms]
[OGL LOG][Proc: 0]Uz: update_non_local_matrix_data: 0.064 [ms]
[OGL LOG][Proc: 0]Uz_matrix: call_update: 8.458 [ms]
[OGL LOG][Proc: 0]Uz_rhs: call_update: 2.524 [ms]
[OGL LOG][Preconditioner.H:121] Generate preconditioner BJ MaxBlockSize 1
[OGL LOG][Proc: 0]Uz: init_precond: 0.49 [ms]
[OGL LOG][StoppingCriterion.H:373] Creating stopping criterion with minIter 12 frequency 1
[OGL LOG][Proc: 0]Uz: generate_solver: 0.002 [ms]
[OGL LOG][Proc: 0]Uz: solve: 57.521 [ms]
[OGL LOG][Proc: 0]Uz: copy_x_back: 2.141 [ms]
[OGL LOG][lduLduBase.H:336] 
Statistics:
	Time per iteration: 5752 [mu s]
	Time per residual norm calculation: 240.000000 [mu s]
	Time per iteration and DOF: 0.911983 [ns]
	Retrieve results bandwidth 2.939000 [GByte/s]
[OGL LOG][Proc: 0]Uz: solve_multi_gpu: 72.21000000000001 [ms]
BJhipGKOBiCGStab:  Solving for Uz, Initial residual = 0.1325126166615448, Final residual = 0.01238019520556573, No Iterations 10
[INFO] MomentumPredictor: 312.357 [ms]
[INFO] MatrixAssemblyPI: 114.448 [ms]
[INFO] MatrixAssemblyPII: 57.694 [ms]
DICPCG:  Solving for p, Initial residual = 0.09395051708989559, Final residual = 0.0009225193417577523, No Iterations 289
[INFO] SolveP: 5025.196 [ms]
time step continuity errors : sum local = 0.009039395893216775, global = -0.0002691959798165447, cumulative = 0.000128036656715312
[INFO] postSolveP: 32.709 [ms]
[OGL LOG][Proc: 0]: global_index_init: 0.361 [ms]
[OGL LOG][Proc: 0]nuTilda_local_coeffs: call_update: 0 [ms]
[OGL LOG][Proc: 0]nuTilda_non_local_coeffs: call_update: 0 [ms]
[OGL LOG][Proc: 0]nuTilda: update_local_matrix_data: 18.973 [ms]
[OGL LOG][Proc: 0]nuTilda: update_non_local_matrix_data: 0.07000000000000001 [ms]
[OGL LOG][Proc: 0]nuTilda_matrix: call_update: 6.773000000000001 [ms]
[OGL LOG][Proc: 0]nuTilda_rhs: call_update: 0.743 [ms]
[OGL LOG][Preconditioner.H:121] Generate preconditioner BJ MaxBlockSize 1
[OGL LOG][Proc: 0]nuTilda: init_precond: 0.415 [ms]
[OGL LOG][StoppingCriterion.H:373] Creating stopping criterion with minIter 2 frequency 1
[OGL LOG][Proc: 0]nuTilda: generate_solver: 0.003 [ms]
[OGL LOG][Proc: 0]nuTilda: solve: 50.221 [ms]
[OGL LOG][Proc: 0]nuTilda: copy_x_back: 2.094 [ms]
[OGL LOG][lduLduBase.H:336] 
Statistics:
	Time per iteration: 25110 [mu s]
	Time per residual norm calculation: 299.000000 [mu s]
	Time per iteration and DOF: 3.981205 [ns]
	Retrieve results bandwidth 3.005000 [GByte/s]
[OGL LOG][Proc: 0]nuTilda: solve_multi_gpu: 61.34 [ms]
BJhipGKOBiCGStab:  Solving for nuTilda, Initial residual = 0.06015175342674563, Final residual = 0.005364895630580187, No Iterations 2
bounding nuTilda, min: -1.444753531285464e-05 max: 0.001249590296891931 average: 8.920007359115442e-05
[INFO] TimeStep: 6927.13 [ms]
ExecutionTime = 52.59 s  ClockTime = 53 s

Time = 6

velocityDampingConstraint velocityDamping damped 0 (0%) of cells, with max limit 300
[INFO] MatrixAssemblyU: 842.599 [ms]
[OGL LOG][Proc: 0]: global_index_init: 0.057 [ms]
[OGL LOG][Proc: 0]Ux_local_coeffs: call_update: 0 [ms]
[OGL LOG][Proc: 0]Ux_non_local_coeffs: call_update: 0 [ms]
[OGL LOG][Proc: 0]Ux: update_local_matrix_data: 15.541 [ms]
[OGL LOG][Proc: 0]Ux: update_non_local_matrix_data: 0.07100000000000001 [ms]
[OGL LOG][Proc: 0]Ux_matrix: call_update: 6.274 [ms]
[OGL LOG][Proc: 0]Ux_rhs: call_update: 1.804 [ms]
[OGL LOG][Preconditioner.H:121] Generate preconditioner BJ MaxBlockSize 1
[OGL LOG][Proc: 0]Ux: init_precond: 0.504 [ms]
[OGL LOG][StoppingCriterion.H:373] Creating stopping criterion with minIter 13 frequency 1
[OGL LOG][Proc: 0]Ux: generate_solver: 0.002 [ms]
[OGL LOG][Proc: 0]Ux: solve: 65.114 [ms]
[OGL LOG][Proc: 0]Ux: copy_x_back: 2.062 [ms]
[OGL LOG][lduLduBase.H:336] 
Statistics:
	Time per iteration: 4069 [mu s]
	Time per residual norm calculation: 298.000000 [mu s]
	Time per iteration and DOF: 0.645142 [ns]
	Retrieve results bandwidth 3.051000 [GByte/s]
[OGL LOG][Proc: 0]Ux: solve_multi_gpu: 76.768 [ms]
BJhipGKOBiCGStab:  Solving for Ux, Initial residual = 0.03342976332638741, Final residual = 0.00197481129484577, No Iterations 16
[OGL LOG][Proc: 0]: global_index_init: 0.06 [ms]
[OGL LOG][Proc: 0]Uy_local_coeffs: call_update: 0 [ms]
[OGL LOG][Proc: 0]Uy_non_local_coeffs: call_update: 0 [ms]
[OGL LOG][Proc: 0]Uy: update_local_matrix_data: 16.115 [ms]
[OGL LOG][Proc: 0]Uy: update_non_local_matrix_data: 0.065 [ms]
[OGL LOG][Proc: 0]Uy_matrix: call_update: 12.136 [ms]
[OGL LOG][Proc: 0]Uy_rhs: call_update: 0.8120000000000001 [ms]
[OGL LOG][Preconditioner.H:121] Generate preconditioner BJ MaxBlockSize 1
[OGL LOG][Proc: 0]Uy: init_precond: 0.419 [ms]
[OGL LOG][StoppingCriterion.H:373] Creating stopping criterion with minIter 13 frequency 1
[OGL LOG][Proc: 0]Uy: generate_solver: 0.002 [ms]
[OGL LOG][Proc: 0]Uy: solve: 66.79300000000001 [ms]
[OGL LOG][Proc: 0]Uy: copy_x_back: 2.046 [ms]
[OGL LOG][lduLduBase.H:336] 
Statistics:
	Time per iteration: 5566 [mu s]
	Time per residual norm calculation: 262.000000 [mu s]
	Time per iteration and DOF: 0.882492 [ns]
	Retrieve results bandwidth 3.075000 [GByte/s]
[OGL LOG][Proc: 0]Uy: solve_multi_gpu: 83.285 [ms]
BJhipGKOBiCGStab:  Solving for Uy, Initial residual = 0.08966253477940217, Final residual = 0.007673543829866652, No Iterations 12
[OGL LOG][Proc: 0]: global_index_init: 0.048 [ms]
[OGL LOG][Proc: 0]Uz_local_coeffs: call_update: 0 [ms]
[OGL LOG][Proc: 0]Uz_non_local_coeffs: call_update: 0 [ms]
[OGL LOG][Proc: 0]Uz: update_local_matrix_data: 16.18 [ms]
[OGL LOG][Proc: 0]Uz: update_non_local_matrix_data: 0.07000000000000001 [ms]
[OGL LOG][Proc: 0]Uz_matrix: call_update: 6.003 [ms]
[OGL LOG][Proc: 0]Uz_rhs: call_update: 3.513 [ms]
[OGL LOG][Preconditioner.H:121] Generate preconditioner BJ MaxBlockSize 1
[OGL LOG][Proc: 0]Uz: init_precond: 0.511 [ms]
[OGL LOG][StoppingCriterion.H:373] Creating stopping criterion with minIter 12 frequency 1
[OGL LOG][Proc: 0]Uz: generate_solver: 0.002 [ms]
[OGL LOG][Proc: 0]Uz: solve: 70.361 [ms]
[OGL LOG][Proc: 0]Uz: copy_x_back: 2.097 [ms]
[OGL LOG][lduLduBase.H:336] 
Statistics:
	Time per iteration: 5863 [mu s]
	Time per residual norm calculation: 260.000000 [mu s]
	Time per iteration and DOF: 0.929582 [ns]
	Retrieve results bandwidth 3.000000 [GByte/s]
[OGL LOG][Proc: 0]Uz: solve_multi_gpu: 83.492 [ms]
BJhipGKOBiCGStab:  Solving for Uz, Initial residual = 0.09187293324991275, Final residual = 0.007111876890974985, No Iterations 12
[INFO] MomentumPredictor: 342.95 [ms]
[INFO] MatrixAssemblyPI: 117.1 [ms]
[INFO] MatrixAssemblyPII: 58.372 [ms]
DICPCG:  Solving for p, Initial residual = 0.1071497085422727, Final residual = 0.001059392451956226, No Iterations 146
[INFO] SolveP: 2554.19 [ms]
time step continuity errors : sum local = 0.008464989841638709, global = 0.001770746747659457, cumulative = 0.001898783404374769
[INFO] postSolveP: 35.479 [ms]
[OGL LOG][Proc: 0]: global_index_init: 0.047 [ms]
[OGL LOG][Proc: 0]nuTilda_local_coeffs: call_update: 0 [ms]
[OGL LOG][Proc: 0]nuTilda_non_local_coeffs: call_update: 0 [ms]
[OGL LOG][Proc: 0]nuTilda: update_local_matrix_data: 15.68 [ms]
[OGL LOG][Proc: 0]nuTilda: update_non_local_matrix_data: 0.073 [ms]
[OGL LOG][Proc: 0]nuTilda_matrix: call_update: 7.09 [ms]
[OGL LOG][Proc: 0]nuTilda_rhs: call_update: 0.71 [ms]
[OGL LOG][Preconditioner.H:121] Generate preconditioner BJ MaxBlockSize 1
[OGL LOG][Proc: 0]nuTilda: init_precond: 0.412 [ms]
[OGL LOG][StoppingCriterion.H:373] Creating stopping criterion with minIter 2 frequency 1
[OGL LOG][Proc: 0]nuTilda: generate_solver: 0.002 [ms]
[OGL LOG][Proc: 0]nuTilda: solve: 49.029 [ms]
[OGL LOG][Proc: 0]nuTilda: copy_x_back: 2.148 [ms]
[OGL LOG][lduLduBase.H:336] 
Statistics:
	Time per iteration: 24514 [mu s]
	Time per residual norm calculation: 248.000000 [mu s]
	Time per iteration and DOF: 3.886709 [ns]
	Retrieve results bandwidth 2.929000 [GByte/s]
[OGL LOG][Proc: 0]nuTilda: solve_multi_gpu: 60.483 [ms]
BJhipGKOBiCGStab:  Solving for nuTilda, Initial residual = 0.05606838106521585, Final residual = 0.003087608128196798, No Iterations 2
[INFO] TimeStep: 4461.825 [ms]
ExecutionTime = 57.73 s  ClockTime = 58 s

Time = 7

velocityDampingConstraint velocityDamping damped 1 (0%) of cells, with max limit 300
[INFO] MatrixAssemblyU: 847.595 [ms]
[OGL LOG][Proc: 0]: global_index_init: 0.058 [ms]
[OGL LOG][Proc: 0]Ux_local_coeffs: call_update: 0 [ms]
[OGL LOG][Proc: 0]Ux_non_local_coeffs: call_update: 0 [ms]
[OGL LOG][Proc: 0]Ux: update_local_matrix_data: 15.336 [ms]
[OGL LOG][Proc: 0]Ux: update_non_local_matrix_data: 0.067 [ms]
[OGL LOG][Proc: 0]Ux_matrix: call_update: 5.82 [ms]
[OGL LOG][Proc: 0]Ux_rhs: call_update: 2.882 [ms]
[OGL LOG][Preconditioner.H:121] Generate preconditioner BJ MaxBlockSize 1
[OGL LOG][Proc: 0]Ux: init_precond: 0.424 [ms]
[OGL LOG][StoppingCriterion.H:373] Creating stopping criterion with minIter 19 frequency 1
[OGL LOG][Proc: 0]Ux: generate_solver: 0.002 [ms]
[OGL LOG][Proc: 0]Ux: solve: 56.655 [ms]
[OGL LOG][Proc: 0]Ux: copy_x_back: 2.051 [ms]
[OGL LOG][lduLduBase.H:336] 
Statistics:
	Time per iteration: 4721 [mu s]
	Time per residual norm calculation: 295.000000 [mu s]
	Time per iteration and DOF: 0.748517 [ns]
	Retrieve results bandwidth 3.068000 [GByte/s]
[OGL LOG][Proc: 0]Ux: solve_multi_gpu: 68.843 [ms]
BJhipGKOBiCGStab:  Solving for Ux, Initial residual = 0.02682296456525912, Final residual = 0.00241862547266142, No Iterations 12
[OGL LOG][Proc: 0]: global_index_init: 0.055 [ms]
[OGL LOG][Proc: 0]Uy_local_coeffs: call_update: 0 [ms]
[OGL LOG][Proc: 0]Uy_non_local_coeffs: call_update: 0 [ms]
[OGL LOG][Proc: 0]Uy: update_local_matrix_data: 15.57 [ms]
[OGL LOG][Proc: 0]Uy: update_non_local_matrix_data: 0.063 [ms]
[OGL LOG][Proc: 0]Uy_matrix: call_update: 5.814 [ms]
[OGL LOG][Proc: 0]Uy_rhs: call_update: 2.022 [ms]
[OGL LOG][Preconditioner.H:121] Generate preconditioner BJ MaxBlockSize 1
[OGL LOG][Proc: 0]Uy: init_precond: 0.427 [ms]
[OGL LOG][StoppingCriterion.H:373] Creating stopping criterion with minIter 14 frequency 1
[OGL LOG][Proc: 0]Uy: generate_solver: 0.002 [ms]
[OGL LOG][Proc: 0]Uy: solve: 62.305 [ms]
[OGL LOG][Proc: 0]Uy: copy_x_back: 2.099 [ms]
[OGL LOG][lduLduBase.H:336] 
Statistics:
	Time per iteration: 4153 [mu s]
	Time per residual norm calculation: 295.000000 [mu s]
	Time per iteration and DOF: 0.658461 [ns]
	Retrieve results bandwidth 2.998000 [GByte/s]
[OGL LOG][Proc: 0]Uy: solve_multi_gpu: 73.738 [ms]
BJhipGKOBiCGStab:  Solving for Uy, Initial residual = 0.1105051652691147, Final residual = 0.005189581038380042, No Iterations 15
[OGL LOG][Proc: 0]: global_index_init: 0.019 [ms]
[OGL LOG][Proc: 0]Uz_local_coeffs: call_update: 0 [ms]
[OGL LOG][Proc: 0]Uz_non_local_coeffs: call_update: 0 [ms]
[OGL LOG][Proc: 0]Uz: update_local_matrix_data: 15.589 [ms]
[OGL LOG][Proc: 0]Uz: update_non_local_matrix_data: 0.066 [ms]
[OGL LOG][Proc: 0]Uz_matrix: call_update: 13.079 [ms]
[OGL LOG][Proc: 0]Uz_rhs: call_update: 0.783 [ms]
[OGL LOG][Preconditioner.H:121] Generate preconditioner BJ MaxBlockSize 1
[OGL LOG][Proc: 0]Uz: init_precond: 0.41 [ms]
[OGL LOG][StoppingCriterion.H:373] Creating stopping criterion with minIter 14 frequency 1
[OGL LOG][Proc: 0]Uz: generate_solver: 0.002 [ms]
[OGL LOG][Proc: 0]Uz: solve: 57.887 [ms]
[OGL LOG][Proc: 0]Uz: copy_x_back: 2.161 [ms]
[OGL LOG][lduLduBase.H:336] 
Statistics:
	Time per iteration: 5262 [mu s]
	Time per residual norm calculation: 251.000000 [mu s]
	Time per iteration and DOF: 0.834293 [ns]
	Retrieve results bandwidth 2.912000 [GByte/s]
[OGL LOG][Proc: 0]Uz: solve_multi_gpu: 75.373 [ms]
BJhipGKOBiCGStab:  Solving for Uz, Initial residual = 0.07408561734068607, Final residual = 0.006722066634799743, No Iterations 11
[INFO] MomentumPredictor: 314.962 [ms]
[INFO] MatrixAssemblyPI: 115.758 [ms]
[INFO] MatrixAssemblyPII: 58.792 [ms]
DICPCG:  Solving for p, Initial residual = 0.08976896778192309, Final residual = 0.0008780973929938603, No Iterations 243
[INFO] SolveP: 4209.684 [ms]
time step continuity errors : sum local = 0.007044092962852277, global = 5.932593143788089e-05, cumulative = 0.00195810933581265
[INFO] postSolveP: 32.694 [ms]
[OGL LOG][Proc: 0]: global_index_init: 0.755 [ms]
[OGL LOG][Proc: 0]nuTilda_local_coeffs: call_update: 0 [ms]
[OGL LOG][Proc: 0]nuTilda_non_local_coeffs: call_update: 0 [ms]
[OGL LOG][Proc: 0]nuTilda: update_local_matrix_data: 15.413 [ms]
[OGL LOG][Proc: 0]nuTilda: update_non_local_matrix_data: 0.094 [ms]
[OGL LOG][Proc: 0]nuTilda_matrix: call_update: 8.288 [ms]
[OGL LOG][Proc: 0]nuTilda_rhs: call_update: 1.209 [ms]
[OGL LOG][Preconditioner.H:121] Generate preconditioner BJ MaxBlockSize 1
[OGL LOG][Proc: 0]nuTilda: init_precond: 0.441 [ms]
[OGL LOG][StoppingCriterion.H:373] Creating stopping criterion with minIter 3 frequency 1
[OGL LOG][Proc: 0]nuTilda: generate_solver: 0.002 [ms]
[OGL LOG][Proc: 0]nuTilda: solve: 42.452 [ms]
[OGL LOG][Proc: 0]nuTilda: copy_x_back: 2.089 [ms]
[OGL LOG][lduLduBase.H:336] 
Statistics:
	Time per iteration: 21226 [mu s]
	Time per residual norm calculation: 303.000000 [mu s]
	Time per iteration and DOF: 3.365394 [ns]
	Retrieve results bandwidth 3.012000 [GByte/s]
[OGL LOG][Proc: 0]nuTilda: solve_multi_gpu: 55.586 [ms]
BJhipGKOBiCGStab:  Solving for nuTilda, Initial residual = 0.04665034571568594, Final residual = 0.003870047331121195, No Iterations 2
[INFO] TimeStep: 6084.323 [ms]
ExecutionTime = 64.48999999999999 s  ClockTime = 65 s

Time = 8

velocityDampingConstraint velocityDamping damped 0 (0%) of cells, with max limit 300
[INFO] MatrixAssemblyU: 838.9 [ms]
[OGL LOG][Proc: 0]: global_index_init: 0.061 [ms]
[OGL LOG][Proc: 0]Ux_local_coeffs: call_update: 0 [ms]
[OGL LOG][Proc: 0]Ux_non_local_coeffs: call_update: 0 [ms]
[OGL LOG][Proc: 0]Ux: update_local_matrix_data: 15.793 [ms]
[OGL LOG][Proc: 0]Ux: update_non_local_matrix_data: 0.104 [ms]
[OGL LOG][Proc: 0]Ux_matrix: call_update: 8.246 [ms]
[OGL LOG][Proc: 0]Ux_rhs: call_update: 2.227 [ms]
[OGL LOG][Preconditioner.H:121] Generate preconditioner BJ MaxBlockSize 1
[OGL LOG][Proc: 0]Ux: init_precond: 0.432 [ms]
[OGL LOG][StoppingCriterion.H:373] Creating stopping criterion with minIter 14 frequency 1
[OGL LOG][Proc: 0]Ux: generate_solver: 0.002 [ms]
[OGL LOG][Proc: 0]Ux: solve: 59.668 [ms]
[OGL LOG][Proc: 0]Ux: copy_x_back: 2.034 [ms]
[OGL LOG][lduLduBase.H:336] 
Statistics:
	Time per iteration: 5424 [mu s]
	Time per residual norm calculation: 245.000000 [mu s]
	Time per iteration and DOF: 0.859978 [ns]
	Retrieve results bandwidth 3.093000 [GByte/s]
[OGL LOG][Proc: 0]Ux: solve_multi_gpu: 73.703 [ms]
BJhipGKOBiCGStab:  Solving for Ux, Initial residual = 0.0203042214480559, Final residual = 0.001796005659954938, No Iterations 11
[OGL LOG][Proc: 0]: global_index_init: 0.055 [ms]
[OGL LOG][Proc: 0]Uy_local_coeffs: call_update: 0 [ms]
[OGL LOG][Proc: 0]Uy_non_local_coeffs: call_update: 0 [ms]
[OGL LOG][Proc: 0]Uy: update_local_matrix_data: 15.593 [ms]
[OGL LOG][Proc: 0]Uy: update_non_local_matrix_data: 0.066 [ms]
[OGL LOG][Proc: 0]Uy_matrix: call_update: 6.100000000000001 [ms]
[OGL LOG][Proc: 0]Uy_rhs: call_update: 2.077 [ms]
[OGL LOG][Preconditioner.H:121] Generate preconditioner BJ MaxBlockSize 1
[OGL LOG][Proc: 0]Uy: init_precond: 0.427 [ms]
[OGL LOG][StoppingCriterion.H:373] Creating stopping criterion with minIter 18 frequency 1
[OGL LOG][Proc: 0]Uy: generate_solver: 0.002 [ms]
[OGL LOG][Proc: 0]Uy: solve: 62.738 [ms]
[OGL LOG][Proc: 0]Uy: copy_x_back: 2.205 [ms]
[OGL LOG][lduLduBase.H:336] 
Statistics:
	Time per iteration: 5228 [mu s]
	Time per residual norm calculation: 294.000000 [mu s]
	Time per iteration and DOF: 0.828902 [ns]
	Retrieve results bandwidth 2.853000 [GByte/s]
[OGL LOG][Proc: 0]Uy: solve_multi_gpu: 74.569 [ms]
BJhipGKOBiCGStab:  Solving for Uy, Initial residual = 0.06256473193621247, Final residual = 0.005824832223557596, No Iterations 12
[OGL LOG][Proc: 0]: global_index_init: 0.059 [ms]
[OGL LOG][Proc: 0]Uz_local_coeffs: call_update: 0 [ms]
[OGL LOG][Proc: 0]Uz_non_local_coeffs: call_update: 0 [ms]
[OGL LOG][Proc: 0]Uz: update_local_matrix_data: 15.623 [ms]
[OGL LOG][Proc: 0]Uz: update_non_local_matrix_data: 0.066 [ms]
[OGL LOG][Proc: 0]Uz_matrix: call_update: 5.687 [ms]
[OGL LOG][Proc: 0]Uz_rhs: call_update: 2.432 [ms]
[OGL LOG][Preconditioner.H:121] Generate preconditioner BJ MaxBlockSize 1
[OGL LOG][Proc: 0]Uz: init_precond: 0.423 [ms]
[OGL LOG][StoppingCriterion.H:373] Creating stopping criterion with minIter 13 frequency 1
[OGL LOG][Proc: 0]Uz: generate_solver: 0.001 [ms]
[OGL LOG][Proc: 0]Uz: solve: 56.672 [ms]
[OGL LOG][Proc: 0]Uz: copy_x_back: 2.043 [ms]
[OGL LOG][lduLduBase.H:336] 
Statistics:
	Time per iteration: 5152 [mu s]
	Time per residual norm calculation: 295.000000 [mu s]
	Time per iteration and DOF: 0.816853 [ns]
	Retrieve results bandwidth 3.080000 [GByte/s]
[OGL LOG][Proc: 0]Uz: solve_multi_gpu: 68.262 [ms]
BJhipGKOBiCGStab:  Solving for Uz, Initial residual = 0.05531117600520757, Final residual = 0.005401091032693478, No Iterations 11
[INFO] MomentumPredictor: 314.824 [ms]
[INFO] MatrixAssemblyPI: 114.429 [ms]
[INFO] MatrixAssemblyPII: 57.857 [ms]
DICPCG:  Solving for p, Initial residual = 0.07015357799384388, Final residual = 0.0006904938643209554, No Iterations 111
[INFO] SolveP: 1940.69 [ms]
time step continuity errors : sum local = 0.006048211164737266, global = -0.0003768295145912124, cumulative = 0.001581279821221438
[INFO] postSolveP: 32.473 [ms]
[OGL LOG][Proc: 0]: global_index_init: 0.964 [ms]
[OGL LOG][Proc: 0]nuTilda_local_coeffs: call_update: 0 [ms]
[OGL LOG][Proc: 0]nuTilda_non_local_coeffs: call_update: 0 [ms]
[OGL LOG][Proc: 0]nuTilda: update_local_matrix_data: 15.514 [ms]
[OGL LOG][Proc: 0]nuTilda: update_non_local_matrix_data: 0.06900000000000001 [ms]
[OGL LOG][Proc: 0]nuTilda_matrix: call_update: 13.695 [ms]
[OGL LOG][Proc: 0]nuTilda_rhs: call_update: 0.799 [ms]
[OGL LOG][Preconditioner.H:121] Generate preconditioner BJ MaxBlockSize 1
[OGL LOG][Proc: 0]nuTilda: init_precond: 0.433 [ms]
[OGL LOG][StoppingCriterion.H:373] Creating stopping criterion with minIter 2 frequency 1
[OGL LOG][Proc: 0]nuTilda: generate_solver: 0.002 [ms]
[OGL LOG][Proc: 0]nuTilda: solve: 48.549 [ms]
[OGL LOG][Proc: 0]nuTilda: copy_x_back: 2.085 [ms]
[OGL LOG][lduLduBase.H:336] 
Statistics:
	Time per iteration: 24274 [mu s]
	Time per residual norm calculation: 242.000000 [mu s]
	Time per iteration and DOF: 3.848657 [ns]
	Retrieve results bandwidth 3.018000 [GByte/s]
[OGL LOG][Proc: 0]nuTilda: solve_multi_gpu: 66.596 [ms]
BJhipGKOBiCGStab:  Solving for nuTilda, Initial residual = 0.05287759326543612, Final residual = 0.002512882324357756, No Iterations 2
[INFO] TimeStep: 3807.164 [ms]
ExecutionTime = 68.97 s  ClockTime = 69 s

Time = 9

velocityDampingConstraint velocityDamping damped 0 (0%) of cells, with max limit 300
[INFO] MatrixAssemblyU: 829.398 [ms]
[OGL LOG][Proc: 0]: global_index_init: 0.059 [ms]
[OGL LOG][Proc: 0]Ux_local_coeffs: call_update: 0 [ms]
[OGL LOG][Proc: 0]Ux_non_local_coeffs: call_update: 0 [ms]
[OGL LOG][Proc: 0]Ux: update_local_matrix_data: 15.809 [ms]
[OGL LOG][Proc: 0]Ux: update_non_local_matrix_data: 0.07100000000000001 [ms]
[OGL LOG][Proc: 0]Ux_matrix: call_update: 5.841 [ms]
[OGL LOG][Proc: 0]Ux_rhs: call_update: 1.788 [ms]
[OGL LOG][Preconditioner.H:121] Generate preconditioner BJ MaxBlockSize 1
[OGL LOG][Proc: 0]Ux: init_precond: 0.423 [ms]
[OGL LOG][StoppingCriterion.H:373] Creating stopping criterion with minIter 13 frequency 1
[OGL LOG][Proc: 0]Ux: generate_solver: 0.002 [ms]
[OGL LOG][Proc: 0]Ux: solve: 56.701 [ms]
[OGL LOG][Proc: 0]Ux: copy_x_back: 2.062 [ms]
[OGL LOG][lduLduBase.H:336] 
Statistics:
	Time per iteration: 5154 [mu s]
	Time per residual norm calculation: 248.000000 [mu s]
	Time per iteration and DOF: 0.817170 [ns]
	Retrieve results bandwidth 3.051000 [GByte/s]
[OGL LOG][Proc: 0]Ux: solve_multi_gpu: 67.89100000000001 [ms]
BJhipGKOBiCGStab:  Solving for Ux, Initial residual = 0.01661054516178928, Final residual = 0.001402543920928949, No Iterations 11
[OGL LOG][Proc: 0]: global_index_init: 0.241 [ms]
[OGL LOG][Proc: 0]Uy_local_coeffs: call_update: 0 [ms]
[OGL LOG][Proc: 0]Uy_non_local_coeffs: call_update: 0 [ms]
[OGL LOG][Proc: 0]Uy: update_local_matrix_data: 16.127 [ms]
[OGL LOG][Proc: 0]Uy: update_non_local_matrix_data: 0.064 [ms]
[OGL LOG][Proc: 0]Uy_matrix: call_update: 5.915 [ms]
[OGL LOG][Proc: 0]Uy_rhs: call_update: 1.153 [ms]
[OGL LOG][Preconditioner.H:121] Generate preconditioner BJ MaxBlockSize 1
[OGL LOG][Proc: 0]Uy: init_precond: 0.474 [ms]
[OGL LOG][StoppingCriterion.H:373] Creating stopping criterion with minIter 14 frequency 1
[OGL LOG][Proc: 0]Uy: generate_solver: 0.002 [ms]
[OGL LOG][Proc: 0]Uy: solve: 64.75700000000001 [ms]
[OGL LOG][Proc: 0]Uy: copy_x_back: 2.043 [ms]
[OGL LOG][lduLduBase.H:336] 
Statistics:
	Time per iteration: 5396 [mu s]
	Time per residual norm calculation: 293.000000 [mu s]
	Time per iteration and DOF: 0.855539 [ns]
	Retrieve results bandwidth 3.080000 [GByte/s]
[OGL LOG][Proc: 0]Uy: solve_multi_gpu: 75.408 [ms]
BJhipGKOBiCGStab:  Solving for Uy, Initial residual = 0.04990012130925583, Final residual = 0.004460270414274092, No Iterations 12
[OGL LOG][Proc: 0]: global_index_init: 0.056 [ms]
[OGL LOG][Proc: 0]Uz_local_coeffs: call_update: 0 [ms]
[OGL LOG][Proc: 0]Uz_non_local_coeffs: call_update: 0 [ms]
[OGL LOG][Proc: 0]Uz: update_local_matrix_data: 16.548 [ms]
[OGL LOG][Proc: 0]Uz: update_non_local_matrix_data: 0.066 [ms]
[OGL LOG][Proc: 0]Uz_matrix: call_update: 6.042 [ms]
[OGL LOG][Proc: 0]Uz_rhs: call_update: 1.26 [ms]
[OGL LOG][Preconditioner.H:121] Generate preconditioner BJ MaxBlockSize 1
[OGL LOG][Proc: 0]Uz: init_precond: 0.43 [ms]
[OGL LOG][StoppingCriterion.H:373] Creating stopping criterion with minIter 13 frequency 1
[OGL LOG][Proc: 0]Uz: generate_solver: 0.002 [ms]
[OGL LOG][Proc: 0]Uz: solve: 65.23099999999999 [ms]
[OGL LOG][Proc: 0]Uz: copy_x_back: 2.081 [ms]
[OGL LOG][lduLduBase.H:336] 
Statistics:
	Time per iteration: 4076 [mu s]
	Time per residual norm calculation: 246.000000 [mu s]
	Time per iteration and DOF: 0.646252 [ns]
	Retrieve results bandwidth 3.023000 [GByte/s]
[OGL LOG][Proc: 0]Uz: solve_multi_gpu: 76.11799999999999 [ms]
BJhipGKOBiCGStab:  Solving for Uz, Initial residual = 0.04689160302590285, Final residual = 0.004316378598026881, No Iterations 16
[INFO] MomentumPredictor: 319.018 [ms]
[INFO] MatrixAssemblyPI: 115.214 [ms]
[INFO] MatrixAssemblyPII: 57.496 [ms]
DICPCG:  Solving for p, Initial residual = 0.06564234194194137, Final residual = 0.0006424897094285977, No Iterations 111
[INFO] SolveP: 1940.423 [ms]
time step continuity errors : sum local = 0.005491120786189484, global = -0.0005874273911825774, cumulative = 0.0009938524300388604
[INFO] postSolveP: 32.606 [ms]
[OGL LOG][Proc: 0]: global_index_init: 0.27 [ms]
[OGL LOG][Proc: 0]nuTilda_local_coeffs: call_update: 0 [ms]
[OGL LOG][Proc: 0]nuTilda_non_local_coeffs: call_update: 0 [ms]
[OGL LOG][Proc: 0]nuTilda: update_local_matrix_data: 19.211 [ms]
[OGL LOG][Proc: 0]nuTilda: update_non_local_matrix_data: 0.06900000000000001 [ms]
[OGL LOG][Proc: 0]nuTilda_matrix: call_update: 6.729 [ms]
[OGL LOG][Proc: 0]nuTilda_rhs: call_update: 0.747 [ms]
[OGL LOG][Preconditioner.H:121] Generate preconditioner BJ MaxBlockSize 1
[OGL LOG][Proc: 0]nuTilda: init_precond: 0.446 [ms]
[OGL LOG][StoppingCriterion.H:373] Creating stopping criterion with minIter 3 frequency 1
[OGL LOG][Proc: 0]nuTilda: generate_solver: 0.002 [ms]
[OGL LOG][Proc: 0]nuTilda: solve: 41.652 [ms]
[OGL LOG][Proc: 0]nuTilda: copy_x_back: 2.175 [ms]
[OGL LOG][lduLduBase.H:336] 
Statistics:
	Time per iteration: 20826 [mu s]
	Time per residual norm calculation: 301.000000 [mu s]
	Time per iteration and DOF: 3.301974 [ns]
	Retrieve results bandwidth 2.893000 [GByte/s]
[OGL LOG][Proc: 0]nuTilda: solve_multi_gpu: 52.84 [ms]
BJhipGKOBiCGStab:  Solving for nuTilda, Initial residual = 0.04136196702224508, Final residual = 0.003602897508326558, No Iterations 2
[INFO] TimeStep: 3790.523 [ms]
ExecutionTime = 73.43000000000001 s  ClockTime = 74 s

Time = 10

velocityDampingConstraint velocityDamping damped 0 (0%) of cells, with max limit 300
[INFO] MatrixAssemblyU: 814.1180000000001 [ms]
[OGL LOG][Proc: 0]: global_index_init: 0.034 [ms]
[OGL LOG][Proc: 0]Ux_local_coeffs: call_update: 0 [ms]
[OGL LOG][Proc: 0]Ux_non_local_coeffs: call_update: 0 [ms]
[OGL LOG][Proc: 0]Ux: update_local_matrix_data: 15.484 [ms]
[OGL LOG][Proc: 0]Ux: update_non_local_matrix_data: 0.07000000000000001 [ms]
[OGL LOG][Proc: 0]Ux_matrix: call_update: 12.996 [ms]
[OGL LOG][Proc: 0]Ux_rhs: call_update: 0.772 [ms]
[OGL LOG][Preconditioner.H:121] Generate preconditioner BJ MaxBlockSize 1
[OGL LOG][Proc: 0]Ux: init_precond: 0.436 [ms]
[OGL LOG][StoppingCriterion.H:373] Creating stopping criterion with minIter 13 frequency 1
[OGL LOG][Proc: 0]Ux: generate_solver: 0.002 [ms]
[OGL LOG][Proc: 0]Ux: solve: 72.626 [ms]
[OGL LOG][Proc: 0]Ux: copy_x_back: 2.172 [ms]
[OGL LOG][lduLduBase.H:336] 
Statistics:
	Time per iteration: 4539 [mu s]
	Time per residual norm calculation: 298.000000 [mu s]
	Time per iteration and DOF: 0.719661 [ns]
	Retrieve results bandwidth 2.897000 [GByte/s]
[OGL LOG][Proc: 0]Ux: solve_multi_gpu: 90.08800000000001 [ms]
BJhipGKOBiCGStab:  Solving for Ux, Initial residual = 0.01477507065336223, Final residual = 0.0005085344838546673, No Iterations 16
[OGL LOG][Proc: 0]: global_index_init: 0.058 [ms]
[OGL LOG][Proc: 0]Uy_local_coeffs: call_update: 0 [ms]
[OGL LOG][Proc: 0]Uy_non_local_coeffs: call_update: 0 [ms]
[OGL LOG][Proc: 0]Uy: update_local_matrix_data: 15.562 [ms]
[OGL LOG][Proc: 0]Uy: update_non_local_matrix_data: 0.066 [ms]
[OGL LOG][Proc: 0]Uy_matrix: call_update: 6.512 [ms]
[OGL LOG][Proc: 0]Uy_rhs: call_update: 1.659 [ms]
[OGL LOG][Preconditioner.H:121] Generate preconditioner BJ MaxBlockSize 1
[OGL LOG][Proc: 0]Uy: init_precond: 0.488 [ms]
[OGL LOG][StoppingCriterion.H:373] Creating stopping criterion with minIter 14 frequency 1
[OGL LOG][Proc: 0]Uy: generate_solver: 0.002 [ms]
[OGL LOG][Proc: 0]Uy: solve: 56.069 [ms]
[OGL LOG][Proc: 0]Uy: copy_x_back: 2.068 [ms]
[OGL LOG][lduLduBase.H:336] 
Statistics:
	Time per iteration: 5606 [mu s]
	Time per residual norm calculation: 247.000000 [mu s]
	Time per iteration and DOF: 0.888834 [ns]
	Retrieve results bandwidth 3.042000 [GByte/s]
[OGL LOG][Proc: 0]Uy: solve_multi_gpu: 67.90600000000001 [ms]
BJhipGKOBiCGStab:  Solving for Uy, Initial residual = 0.05018542798159435, Final residual = 0.004839701308655945, No Iterations 10
[OGL LOG][Proc: 0]: global_index_init: 0.058 [ms]
[OGL LOG][Proc: 0]Uz_local_coeffs: call_update: 0 [ms]
[OGL LOG][Proc: 0]Uz_non_local_coeffs: call_update: 0 [ms]
[OGL LOG][Proc: 0]Uz: update_local_matrix_data: 15.248 [ms]
[OGL LOG][Proc: 0]Uz: update_non_local_matrix_data: 0.066 [ms]
[OGL LOG][Proc: 0]Uz_matrix: call_update: 10.842 [ms]
[OGL LOG][Proc: 0]Uz_rhs: call_update: 1.074 [ms]
[OGL LOG][Preconditioner.H:121] Generate preconditioner BJ MaxBlockSize 1
[OGL LOG][Proc: 0]Uz: init_precond: 0.538 [ms]
[OGL LOG][StoppingCriterion.H:373] Creating stopping criterion with minIter 19 frequency 1
[OGL LOG][Proc: 0]Uz: generate_solver: 0.002 [ms]
[OGL LOG][Proc: 0]Uz: solve: 55.378 [ms]
[OGL LOG][Proc: 0]Uz: copy_x_back: 2.077 [ms]
[OGL LOG][lduLduBase.H:336] 
Statistics:
	Time per iteration: 5537 [mu s]
	Time per residual norm calculation: 244.000000 [mu s]
	Time per iteration and DOF: 0.877894 [ns]
	Retrieve results bandwidth 3.029000 [GByte/s]
[OGL LOG][Proc: 0]Uz: solve_multi_gpu: 70.962 [ms]
BJhipGKOBiCGStab:  Solving for Uz, Initial residual = 0.04128614442913179, Final residual = 0.003861809657708906, No Iterations 10
[INFO] MomentumPredictor: 326.425 [ms]
[INFO] MatrixAssemblyPI: 116.452 [ms]
[INFO] MatrixAssemblyPII: 57.676 [ms]
DICPCG:  Solving for p, Initial residual = 0.0606825664578387, Final residual = 0.000597342858540016, No Iterations 112
[INFO] SolveP: 1962.731 [ms]
time step continuity errors : sum local = 0.005010302750566016, global = -0.0007437680281133699, cumulative = 0.0002500844019254904
[INFO] postSolveP: 32.153 [ms]
[OGL LOG][Proc: 0]: global_index_init: 2.486 [ms]
[OGL LOG][Proc: 0]nuTilda_local_coeffs: call_update: 0 [ms]
[OGL LOG][Proc: 0]nuTilda_non_local_coeffs: call_update: 0 [ms]
[OGL LOG][Proc: 0]nuTilda: update_local_matrix_data: 15.475 [ms]
[OGL LOG][Proc: 0]nuTilda: update_non_local_matrix_data: 0.068 [ms]
[OGL LOG][Proc: 0]nuTilda_matrix: call_update: 6.831 [ms]
[OGL LOG][Proc: 0]nuTilda_rhs: call_update: 1.309 [ms]
[OGL LOG][Preconditioner.H:121] Generate preconditioner BJ MaxBlockSize 1
[OGL LOG][Proc: 0]nuTilda: init_precond: 0.49 [ms]
[OGL LOG][StoppingCriterion.H:373] Creating stopping criterion with minIter 2 frequency 1
[OGL LOG][Proc: 0]nuTilda: generate_solver: 0.002 [ms]
[OGL LOG][Proc: 0]nuTilda: solve: 50.093 [ms]
[OGL LOG][Proc: 0]nuTilda: copy_x_back: 2.137 [ms]
[OGL LOG][lduLduBase.H:336] 
Statistics:
	Time per iteration: 25046 [mu s]
	Time per residual norm calculation: 247.000000 [mu s]
	Time per iteration and DOF: 3.971058 [ns]
	Retrieve results bandwidth 2.944000 [GByte/s]
[OGL LOG][Proc: 0]nuTilda: solve_multi_gpu: 61.935 [ms]
BJhipGKOBiCGStab:  Solving for nuTilda, Initial residual = 0.05821576115859877, Final residual = 0.002615830012128831, No Iterations 2
[INFO] TimeStep: 3812.011 [ms]
ExecutionTime = 77.90000000000001 s  ClockTime = 78 s

Time = 11

velocityDampingConstraint velocityDamping damped 0 (0%) of cells, with max limit 300
[INFO] MatrixAssemblyU: 818.713 [ms]
[OGL LOG][Proc: 0]: global_index_init: 0.039 [ms]
[OGL LOG][Proc: 0]Ux_local_coeffs: call_update: 0 [ms]
[OGL LOG][Proc: 0]Ux_non_local_coeffs: call_update: 0 [ms]
[OGL LOG][Proc: 0]Ux: update_local_matrix_data: 15.239 [ms]
[OGL LOG][Proc: 0]Ux: update_non_local_matrix_data: 0.07000000000000001 [ms]
[OGL LOG][Proc: 0]Ux_matrix: call_update: 7.086 [ms]
[OGL LOG][Proc: 0]Ux_rhs: call_update: 1.456 [ms]
[OGL LOG][Preconditioner.H:121] Generate preconditioner BJ MaxBlockSize 1
[OGL LOG][Proc: 0]Ux: init_precond: 0.492 [ms]
[OGL LOG][StoppingCriterion.H:373] Creating stopping criterion with minIter 19 frequency 1
[OGL LOG][Proc: 0]Ux: generate_solver: 0.002 [ms]
[OGL LOG][Proc: 0]Ux: solve: 53.871 [ms]
[OGL LOG][Proc: 0]Ux: copy_x_back: 2.087 [ms]
[OGL LOG][lduLduBase.H:336] 
Statistics:
	Time per iteration: 4897 [mu s]
	Time per residual norm calculation: 311.000000 [mu s]
	Time per iteration and DOF: 0.776422 [ns]
	Retrieve results bandwidth 3.015000 [GByte/s]
[OGL LOG][Proc: 0]Ux: solve_multi_gpu: 66.059 [ms]
BJhipGKOBiCGStab:  Solving for Ux, Initial residual = 0.01401896736911998, Final residual = 0.001359579898284251, No Iterations 11
[OGL LOG][Proc: 0]: global_index_init: 0.063 [ms]
[OGL LOG][Proc: 0]Uy_local_coeffs: call_update: 0 [ms]
[OGL LOG][Proc: 0]Uy_non_local_coeffs: call_update: 0 [ms]
[OGL LOG][Proc: 0]Uy: update_local_matrix_data: 15.636 [ms]
[OGL LOG][Proc: 0]Uy: update_non_local_matrix_data: 0.07100000000000001 [ms]
[OGL LOG][Proc: 0]Uy_matrix: call_update: 13.138 [ms]
[OGL LOG][Proc: 0]Uy_rhs: call_update: 0.794 [ms]
[OGL LOG][Preconditioner.H:121] Generate preconditioner BJ MaxBlockSize 1
[OGL LOG][Proc: 0]Uy: init_precond: 0.408 [ms]
[OGL LOG][StoppingCriterion.H:373] Creating stopping criterion with minIter 12 frequency 1
[OGL LOG][Proc: 0]Uy: generate_solver: 0.002 [ms]
[OGL LOG][Proc: 0]Uy: solve: 63.814 [ms]
[OGL LOG][Proc: 0]Uy: copy_x_back: 2.047 [ms]
[OGL LOG][lduLduBase.H:336] 
Statistics:
	Time per iteration: 6381 [mu s]
	Time per residual norm calculation: 301.000000 [mu s]
	Time per iteration and DOF: 1.011711 [ns]
	Retrieve results bandwidth 3.074000 [GByte/s]
[OGL LOG][Proc: 0]Uy: solve_multi_gpu: 81.25700000000001 [ms]
BJhipGKOBiCGStab:  Solving for Uy, Initial residual = 0.04401647469320003, Final residual = 0.004270564853215235, No Iterations 10
[OGL LOG][Proc: 0]: global_index_init: 0.057 [ms]
[OGL LOG][Proc: 0]Uz_local_coeffs: call_update: 0 [ms]
[OGL LOG][Proc: 0]Uz_non_local_coeffs: call_update: 0 [ms]
[OGL LOG][Proc: 0]Uz: update_local_matrix_data: 15.406 [ms]
[OGL LOG][Proc: 0]Uz: update_non_local_matrix_data: 0.065 [ms]
[OGL LOG][Proc: 0]Uz_matrix: call_update: 6.065 [ms]
[OGL LOG][Proc: 0]Uz_rhs: call_update: 2.176 [ms]
[OGL LOG][Preconditioner.H:121] Generate preconditioner BJ MaxBlockSize 1
[OGL LOG][Proc: 0]Uz: init_precond: 0.497 [ms]
[OGL LOG][StoppingCriterion.H:373] Creating stopping criterion with minIter 12 frequency 1
[OGL LOG][Proc: 0]Uz: generate_solver: 0.002 [ms]
[OGL LOG][Proc: 0]Uz: solve: 58.597 [ms]
[OGL LOG][Proc: 0]Uz: copy_x_back: 2.068 [ms]
[OGL LOG][lduLduBase.H:336] 
Statistics:
	Time per iteration: 4883 [mu s]
	Time per residual norm calculation: 265.000000 [mu s]
	Time per iteration and DOF: 0.774202 [ns]
	Retrieve results bandwidth 3.042000 [GByte/s]
[OGL LOG][Proc: 0]Uz: solve_multi_gpu: 70.47 [ms]
BJhipGKOBiCGStab:  Solving for Uz, Initial residual = 0.03902581565240136, Final residual = 0.003116534697661218, No Iterations 12
[INFO] MomentumPredictor: 315.067 [ms]
[INFO] MatrixAssemblyPI: 114.67 [ms]
[INFO] MatrixAssemblyPII: 57.85 [ms]
DICPCG:  Solving for p, Initial residual = 0.05747195384847487, Final residual = 0.0005642676411499865, No Iterations 113
[INFO] SolveP: 1994.057 [ms]
time step continuity errors : sum local = 0.004666435552941751, global = -0.0007641863233136034, cumulative = -0.0005141019213881129
[INFO] postSolveP: 32.716 [ms]
[OGL LOG][Proc: 0]: global_index_init: 0.091 [ms]
[OGL LOG][Proc: 0]nuTilda_local_coeffs: call_update: 0 [ms]
[OGL LOG][Proc: 0]nuTilda_non_local_coeffs: call_update: 0 [ms]
[OGL LOG][Proc: 0]nuTilda: update_local_matrix_data: 15.582 [ms]
[OGL LOG][Proc: 0]nuTilda: update_non_local_matrix_data: 0.073 [ms]
[OGL LOG][Proc: 0]nuTilda_matrix: call_update: 7.002 [ms]
[OGL LOG][Proc: 0]nuTilda_rhs: call_update: 1.384 [ms]
[OGL LOG][Preconditioner.H:121] Generate preconditioner BJ MaxBlockSize 1
[OGL LOG][Proc: 0]nuTilda: init_precond: 0.428 [ms]
[OGL LOG][StoppingCriterion.H:373] Creating stopping criterion with minIter 3 frequency 1
[OGL LOG][Proc: 0]nuTilda: generate_solver: 0.001 [ms]
[OGL LOG][Proc: 0]nuTilda: solve: 50.926 [ms]
[OGL LOG][Proc: 0]nuTilda: copy_x_back: 2.1 [ms]
[OGL LOG][lduLduBase.H:336] 
Statistics:
	Time per iteration: 25463 [mu s]
	Time per residual norm calculation: 243.000000 [mu s]
	Time per iteration and DOF: 4.037173 [ns]
	Retrieve results bandwidth 2.996000 [GByte/s]
[OGL LOG][Proc: 0]nuTilda: solve_multi_gpu: 62.929 [ms]
BJhipGKOBiCGStab:  Solving for nuTilda, Initial residual = 0.03715812415144534, Final residual = 0.001774638288918023, No Iterations 2
[INFO] TimeStep: 3832.709 [ms]
ExecutionTime = 82.40000000000001 s  ClockTime = 83 s

Time = 12

velocityDampingConstraint velocityDamping damped 0 (0%) of cells, with max limit 300
[INFO] MatrixAssemblyU: 809.187 [ms]
[OGL LOG][Proc: 0]: global_index_init: 0.06 [ms]
[OGL LOG][Proc: 0]Ux_local_coeffs: call_update: 0 [ms]
[OGL LOG][Proc: 0]Ux_non_local_coeffs: call_update: 0 [ms]
[OGL LOG][Proc: 0]Ux: update_local_matrix_data: 15.246 [ms]
[OGL LOG][Proc: 0]Ux: update_non_local_matrix_data: 0.06900000000000001 [ms]
[OGL LOG][Proc: 0]Ux_matrix: call_update: 5.95 [ms]
[OGL LOG][Proc: 0]Ux_rhs: call_update: 2.537 [ms]
[OGL LOG][Preconditioner.H:121] Generate preconditioner BJ MaxBlockSize 1
[OGL LOG][Proc: 0]Ux: init_precond: 0.503 [ms]
[OGL LOG][StoppingCriterion.H:373] Creating stopping criterion with minIter 13 frequency 1
[OGL LOG][Proc: 0]Ux: generate_solver: 0.002 [ms]
[OGL LOG][Proc: 0]Ux: solve: 55.73 [ms]
[OGL LOG][Proc: 0]Ux: copy_x_back: 2.089 [ms]
[OGL LOG][lduLduBase.H:336] 
Statistics:
	Time per iteration: 5066 [mu s]
	Time per residual norm calculation: 298.000000 [mu s]
	Time per iteration and DOF: 0.803217 [ns]
	Retrieve results bandwidth 3.012000 [GByte/s]
[OGL LOG][Proc: 0]Ux: solve_multi_gpu: 67.874 [ms]
BJhipGKOBiCGStab:  Solving for Ux, Initial residual = 0.01315490040628082, Final residual = 0.001107329142748852, No Iterations 11
[OGL LOG][Proc: 0]: global_index_init: 0.05 [ms]
[OGL LOG][Proc: 0]Uy_local_coeffs: call_update: 0 [ms]
[OGL LOG][Proc: 0]Uy_non_local_coeffs: call_update: 0 [ms]
[OGL LOG][Proc: 0]Uy: update_local_matrix_data: 15.641 [ms]
[OGL LOG][Proc: 0]Uy: update_non_local_matrix_data: 0.067 [ms]
[OGL LOG][Proc: 0]Uy_matrix: call_update: 6.668 [ms]
[OGL LOG][Proc: 0]Uy_rhs: call_update: 1.103 [ms]
[OGL LOG][Preconditioner.H:121] Generate preconditioner BJ MaxBlockSize 1
[OGL LOG][Proc: 0]Uy: init_precond: 0.434 [ms]
[OGL LOG][StoppingCriterion.H:373] Creating stopping criterion with minIter 12 frequency 1
[OGL LOG][Proc: 0]Uy: generate_solver: 0.002 [ms]
[OGL LOG][Proc: 0]Uy: solve: 56.413 [ms]
[OGL LOG][Proc: 0]Uy: copy_x_back: 2.054 [ms]
[OGL LOG][lduLduBase.H:336] 
Statistics:
	Time per iteration: 5128 [mu s]
	Time per residual norm calculation: 299.000000 [mu s]
	Time per iteration and DOF: 0.813047 [ns]
	Retrieve results bandwidth 3.063000 [GByte/s]
[OGL LOG][Proc: 0]Uy: solve_multi_gpu: 67.739 [ms]
BJhipGKOBiCGStab:  Solving for Uy, Initial residual = 0.04132241981435859, Final residual = 0.003750983865818108, No Iterations 11
[OGL LOG][Proc: 0]: global_index_init: 0.055 [ms]
[OGL LOG][Proc: 0]Uz_local_coeffs: call_update: 0 [ms]
[OGL LOG][Proc: 0]Uz_non_local_coeffs: call_update: 0 [ms]
[OGL LOG][Proc: 0]Uz: update_local_matrix_data: 15.666 [ms]
[OGL LOG][Proc: 0]Uz: update_non_local_matrix_data: 0.065 [ms]
[OGL LOG][Proc: 0]Uz_matrix: call_update: 8.535 [ms]
[OGL LOG][Proc: 0]Uz_rhs: call_update: 5.148 [ms]
[OGL LOG][Preconditioner.H:121] Generate preconditioner BJ MaxBlockSize 1
[OGL LOG][Proc: 0]Uz: init_precond: 0.488 [ms]
[OGL LOG][StoppingCriterion.H:373] Creating stopping criterion with minIter 14 frequency 1
[OGL LOG][Proc: 0]Uz: generate_solver: 0.002 [ms]
[OGL LOG][Proc: 0]Uz: solve: 56.554 [ms]
[OGL LOG][Proc: 0]Uz: copy_x_back: 2.073 [ms]
[OGL LOG][lduLduBase.H:336] 
Statistics:
	Time per iteration: 5141 [mu s]
	Time per residual norm calculation: 248.000000 [mu s]
	Time per iteration and DOF: 0.815108 [ns]
	Retrieve results bandwidth 3.035000 [GByte/s]
[OGL LOG][Proc: 0]Uz: solve_multi_gpu: 73.842 [ms]
BJhipGKOBiCGStab:  Solving for Uz, Initial residual = 0.03872152552947965, Final residual = 0.003578768442679519, No Iterations 11
[INFO] MomentumPredictor: 306.915 [ms]
[INFO] MatrixAssemblyPI: 115.101 [ms]
[INFO] MatrixAssemblyPII: 57.376 [ms]
DICPCG:  Solving for p, Initial residual = 0.05481649116505878, Final residual = 0.0005271513817476164, No Iterations 103
[INFO] SolveP: 1804.429 [ms]
time step continuity errors : sum local = 0.004318749509531482, global = -0.0006712587267714729, cumulative = -0.001185360648159586
[INFO] postSolveP: 32.968 [ms]
[OGL LOG][Proc: 0]: global_index_init: 0.591 [ms]
[OGL LOG][Proc: 0]nuTilda_local_coeffs: call_update: 0 [ms]
[OGL LOG][Proc: 0]nuTilda_non_local_coeffs: call_update: 0 [ms]
[OGL LOG][Proc: 0]nuTilda: update_local_matrix_data: 15.751 [ms]
[OGL LOG][Proc: 0]nuTilda: update_non_local_matrix_data: 0.098 [ms]
[OGL LOG][Proc: 0]nuTilda_matrix: call_update: 6.378 [ms]
[OGL LOG][Proc: 0]nuTilda_rhs: call_update: 1.494 [ms]
[OGL LOG][Preconditioner.H:121] Generate preconditioner BJ MaxBlockSize 1
[OGL LOG][Proc: 0]nuTilda: init_precond: 0.496 [ms]
[...]
[OGL LOG][Proc: 0]Uy_rhs: call_update: 1.624 [ms]
[OGL LOG][Preconditioner.H:121] Generate preconditioner BJ MaxBlockSize 1
[OGL LOG][Proc: 0]Uy: init_precond: 0.432 [ms]
[OGL LOG][StoppingCriterion.H:373] Creating stopping criterion with minIter 13 frequency 1
[OGL LOG][Proc: 0]Uy: generate_solver: 0.002 [ms]
[OGL LOG][Proc: 0]Uy: solve: 57.061 [ms]
[OGL LOG][Proc: 0]Uy: copy_x_back: 2.041 [ms]
[OGL LOG][lduLduBase.H:336] 
Statistics:
	Time per iteration: 4755 [mu s]
	Time per residual norm calculation: 300.000000 [mu s]
	Time per iteration and DOF: 0.753908 [ns]
	Retrieve results bandwidth 3.083000 [GByte/s]
[OGL LOG][Proc: 0]Uy: solve_multi_gpu: 68.488 [ms]
BJhipGKOBiCGStab:  Solving for Uy, Initial residual = 0.07381990020409616, Final residual = 0.007343315668621068, No Iterations 12
[OGL LOG][Proc: 0]: global_index_init: 0.445 [ms]
[OGL LOG][Proc: 0]Uz_local_coeffs: call_update: 0 [ms]
[OGL LOG][Proc: 0]Uz_non_local_coeffs: call_update: 0 [ms]
[OGL LOG][Proc: 0]Uz: update_local_matrix_data: 15.615 [ms]
[OGL LOG][Proc: 0]Uz: update_non_local_matrix_data: 0.06900000000000001 [ms]
[OGL LOG][Proc: 0]Uz_matrix: call_update: 9.31 [ms]
[OGL LOG][Proc: 0]Uz_rhs: call_update: 1.778 [ms]
[OGL LOG][Preconditioner.H:121] Generate preconditioner BJ MaxBlockSize 1
[OGL LOG][Proc: 0]Uz: init_precond: 0.436 [ms]
[OGL LOG][StoppingCriterion.H:373] Creating stopping criterion with minIter 14 frequency 1
[OGL LOG][Proc: 0]Uz: generate_solver: 0.002 [ms]
[OGL LOG][Proc: 0]Uz: solve: 63.247 [ms]
[OGL LOG][Proc: 0]Uz: copy_x_back: 2.116 [ms]
[OGL LOG][lduLduBase.H:336] 
Statistics:
	Time per iteration: 5749 [mu s]
	Time per residual norm calculation: 297.000000 [mu s]
	Time per iteration and DOF: 0.911507 [ns]
	Retrieve results bandwidth 2.973000 [GByte/s]
[OGL LOG][Proc: 0]Uz: solve_multi_gpu: 77.986 [ms]
BJhipGKOBiCGStab:  Solving for Uz, Initial residual = 0.1321667987408242, Final residual = 0.01224427300171631, No Iterations 11
[INFO] MomentumPredictor: 310.856 [ms]
[INFO] MatrixAssemblyPI: 114.199 [ms]
[INFO] MatrixAssemblyPII: 57.183 [ms]
DICPCG:  Solving for p, Initial residual = 0.06608979913796242, Final residual = 0.0006590595776015103, No Iterations 113
[INFO] SolveP: 1998.115 [ms]
time step continuity errors : sum local = 0.007249333176840575, global = -0.001057536267000534, cumulative = -0.0007421953216311199
[INFO] postSolveP: 32.416 [ms]
[OGL LOG][Proc: 0]: global_index_init: 1.021 [ms]
[OGL LOG][Proc: 0]nuTilda_local_coeffs: call_update: 0 [ms]
[OGL LOG][Proc: 0]nuTilda_non_local_coeffs: call_update: 0 [ms]
[OGL LOG][Proc: 0]nuTilda: update_local_matrix_data: 15.529 [ms]
[OGL LOG][Proc: 0]nuTilda: update_non_local_matrix_data: 0.096 [ms]
[OGL LOG][Proc: 0]nuTilda_matrix: call_update: 6.866000000000001 [ms]
[OGL LOG][Proc: 0]nuTilda_rhs: call_update: 1.451 [ms]
[OGL LOG][Preconditioner.H:121] Generate preconditioner BJ MaxBlockSize 1
[OGL LOG][Proc: 0]nuTilda: init_precond: 0.445 [ms]
[OGL LOG][StoppingCriterion.H:373] Creating stopping criterion with minIter 3 frequency 1
[OGL LOG][Proc: 0]nuTilda: generate_solver: 0.002 [ms]
[OGL LOG][Proc: 0]nuTilda: solve: 43.193 [ms]
[OGL LOG][Proc: 0]nuTilda: copy_x_back: 2.074 [ms]
[OGL LOG][lduLduBase.H:336] 
Statistics:
	Time per iteration: 21596 [mu s]
	Time per residual norm calculation: 248.000000 [mu s]
	Time per iteration and DOF: 3.424058 [ns]
	Retrieve results bandwidth 3.034000 [GByte/s]
[OGL LOG][Proc: 0]nuTilda: solve_multi_gpu: 55.143 [ms]
BJhipGKOBiCGStab:  Solving for nuTilda, Initial residual = 0.01179734709299797, Final residual = 0.0008074289769332474, No Iterations 2
bounding nuTilda, min: -1.903343219606377e-05 max: 0.006976182414905012 average: 0.0003469097568869867
[INFO] TimeStep: 3849.442 [ms]
ExecutionTime = 238.9 s  ClockTime = 240 s

Time = 48

velocityDampingConstraint velocityDamping damped 0 (0%) of cells, with max limit 300
[INFO] MatrixAssemblyU: 817.114 [ms]
[OGL LOG][Proc: 0]: global_index_init: 0.05 [ms]
[OGL LOG][Proc: 0]Ux_local_coeffs: call_update: 0 [ms]
[OGL LOG][Proc: 0]Ux_non_local_coeffs: call_update: 0 [ms]
[OGL LOG][Proc: 0]Ux: update_local_matrix_data: 15.388 [ms]
[OGL LOG][Proc: 0]Ux: update_non_local_matrix_data: 0.066 [ms]
[OGL LOG][Proc: 0]Ux_matrix: call_update: 9.704000000000001 [ms]
[OGL LOG][Proc: 0]Ux_rhs: call_update: 1.56 [ms]
[OGL LOG][Preconditioner.H:121] Generate preconditioner BJ MaxBlockSize 1
[OGL LOG][Proc: 0]Ux: init_precond: 0.624 [ms]
[OGL LOG][StoppingCriterion.H:373] Creating stopping criterion with minIter 13 frequency 1
[OGL LOG][Proc: 0]Ux: generate_solver: 0.002 [ms]
[OGL LOG][Proc: 0]Ux: solve: 58.544 [ms]
[OGL LOG][Proc: 0]Ux: copy_x_back: 2.073 [ms]
[OGL LOG][lduLduBase.H:336] 
Statistics:
	Time per iteration: 4878 [mu s]
	Time per residual norm calculation: 296.000000 [mu s]
	Time per iteration and DOF: 0.773410 [ns]
	Retrieve results bandwidth 3.035000 [GByte/s]
[OGL LOG][Proc: 0]Ux: solve_multi_gpu: 73.602 [ms]
BJhipGKOBiCGStab:  Solving for Ux, Initial residual = 0.01185195126441919, Final residual = 0.0008577462740972145, No Iterations 12
[OGL LOG][Proc: 0]: global_index_init: 0.07000000000000001 [ms]
[OGL LOG][Proc: 0]Uy_local_coeffs: call_update: 0 [ms]
[OGL LOG][Proc: 0]Uy_non_local_coeffs: call_update: 0 [ms]
[OGL LOG][Proc: 0]Uy: update_local_matrix_data: 15.435 [ms]
[OGL LOG][Proc: 0]Uy: update_non_local_matrix_data: 0.077 [ms]
[OGL LOG][Proc: 0]Uy_matrix: call_update: 6.049 [ms]
[OGL LOG][Proc: 0]Uy_rhs: call_update: 2.027 [ms]
[OGL LOG][Preconditioner.H:121] Generate preconditioner BJ MaxBlockSize 1
[OGL LOG][Proc: 0]Uy: init_precond: 0.474 [ms]
[OGL LOG][StoppingCriterion.H:373] Creating stopping criterion with minIter 14 frequency 1
[OGL LOG][Proc: 0]Uy: generate_solver: 0.002 [ms]
[OGL LOG][Proc: 0]Uy: solve: 62.131 [ms]
[OGL LOG][Proc: 0]Uy: copy_x_back: 2.029 [ms]
[OGL LOG][lduLduBase.H:336] 
Statistics:
	Time per iteration: 5648 [mu s]
	Time per residual norm calculation: 294.000000 [mu s]
	Time per iteration and DOF: 0.895494 [ns]
	Retrieve results bandwidth 3.101000 [GByte/s]
[OGL LOG][Proc: 0]Uy: solve_multi_gpu: 73.819 [ms]
BJhipGKOBiCGStab:  Solving for Uy, Initial residual = 0.07081047322591988, Final residual = 0.005600775782244023, No Iterations 11
[OGL LOG][Proc: 0]: global_index_init: 0.06 [ms]
[OGL LOG][Proc: 0]Uz_local_coeffs: call_update: 0 [ms]
[OGL LOG][Proc: 0]Uz_non_local_coeffs: call_update: 0 [ms]
[OGL LOG][Proc: 0]Uz: update_local_matrix_data: 15.498 [ms]
[OGL LOG][Proc: 0]Uz: update_non_local_matrix_data: 0.065 [ms]
[OGL LOG][Proc: 0]Uz_matrix: call_update: 6.141 [ms]
[OGL LOG][Proc: 0]Uz_rhs: call_update: 1.789 [ms]
[OGL LOG][Preconditioner.H:121] Generate preconditioner BJ MaxBlockSize 1
[OGL LOG][Proc: 0]Uz: init_precond: 0.494 [ms]
[OGL LOG][StoppingCriterion.H:373] Creating stopping criterion with minIter 13 frequency 1
[OGL LOG][Proc: 0]Uz: generate_solver: 0.002 [ms]
[OGL LOG][Proc: 0]Uz: solve: 68.953 [ms]
[OGL LOG][Proc: 0]Uz: copy_x_back: 2.139 [ms]
[OGL LOG][lduLduBase.H:336] 
Statistics:
	Time per iteration: 5304 [mu s]
	Time per residual norm calculation: 245.000000 [mu s]
	Time per iteration and DOF: 0.840952 [ns]
	Retrieve results bandwidth 2.941000 [GByte/s]
[OGL LOG][Proc: 0]Uz: solve_multi_gpu: 80.54300000000001 [ms]
BJhipGKOBiCGStab:  Solving for Uz, Initial residual = 0.08054613703207528, Final residual = 0.007307330897134891, No Iterations 13
[INFO] MomentumPredictor: 325.653 [ms]
[INFO] MatrixAssemblyPI: 116.338 [ms]
[INFO] MatrixAssemblyPII: 58.072 [ms]
DICPCG:  Solving for p, Initial residual = 0.06102531004374754, Final residual = 0.0005983116296765708, No Iterations 99
[INFO] SolveP: 1732.49 [ms]
time step continuity errors : sum local = 0.00645884116875705, global = -0.00101280485289828, cumulative = -0.0017550001745294
[INFO] postSolveP: 32 [ms]
[OGL LOG][Proc: 0]: global_index_init: 0.044 [ms]
[OGL LOG][Proc: 0]nuTilda_local_coeffs: call_update: 0 [ms]
[OGL LOG][Proc: 0]nuTilda_non_local_coeffs: call_update: 0 [ms]
[OGL LOG][Proc: 0]nuTilda: update_local_matrix_data: 15.64 [ms]
[OGL LOG][Proc: 0]nuTilda: update_non_local_matrix_data: 0.06900000000000001 [ms]
[OGL LOG][Proc: 0]nuTilda_matrix: call_update: 10.568 [ms]
[OGL LOG][Proc: 0]nuTilda_rhs: call_update: 5.029 [ms]
[OGL LOG][Preconditioner.H:121] Generate preconditioner BJ MaxBlockSize 1
[OGL LOG][Proc: 0]nuTilda: init_precond: 0.507 [ms]
[OGL LOG][StoppingCriterion.H:373] Creating stopping criterion with minIter 3 frequency 1
[OGL LOG][Proc: 0]nuTilda: generate_solver: 0.002 [ms]
[OGL LOG][Proc: 0]nuTilda: solve: 44.197 [ms]
[OGL LOG][Proc: 0]nuTilda: copy_x_back: 2.147 [ms]
[OGL LOG][lduLduBase.H:336] 
Statistics:
	Time per iteration: 22098 [mu s]
	Time per residual norm calculation: 262.000000 [mu s]
	Time per iteration and DOF: 3.503650 [ns]
	Retrieve results bandwidth 2.931000 [GByte/s]
[OGL LOG][Proc: 0]nuTilda: solve_multi_gpu: 63.559 [ms]
BJhipGKOBiCGStab:  Solving for nuTilda, Initial residual = 0.01547309084619664, Final residual = 0.00152262886320002, No Iterations 2
bounding nuTilda, min: -0.0001818215083992255 max: 0.007012225761837243 average: 0.0003540673734180912
[INFO] TimeStep: 3602.816 [ms]
ExecutionTime = 243.15 s  ClockTime = 244 s

Time = 49

velocityDampingConstraint velocityDamping damped 0 (0%) of cells, with max limit 300
[INFO] MatrixAssemblyU: 805.721 [ms]
[OGL LOG][Proc: 0]: global_index_init: 0.062 [ms]
[OGL LOG][Proc: 0]Ux_local_coeffs: call_update: 0 [ms]
[OGL LOG][Proc: 0]Ux_non_local_coeffs: call_update: 0 [ms]
[OGL LOG][Proc: 0]Ux: update_local_matrix_data: 15.515 [ms]
[OGL LOG][Proc: 0]Ux: update_non_local_matrix_data: 0.105 [ms]
[OGL LOG][Proc: 0]Ux_matrix: call_update: 6.345 [ms]
[OGL LOG][Proc: 0]Ux_rhs: call_update: 1.658 [ms]
[OGL LOG][Preconditioner.H:121] Generate preconditioner BJ MaxBlockSize 1
[OGL LOG][Proc: 0]Ux: init_precond: 0.554 [ms]
[OGL LOG][StoppingCriterion.H:373] Creating stopping criterion with minIter 14 frequency 1
[OGL LOG][Proc: 0]Ux: generate_solver: 0.002 [ms]
[OGL LOG][Proc: 0]Ux: solve: 60.044 [ms]
[OGL LOG][Proc: 0]Ux: copy_x_back: 2.095 [ms]
[OGL LOG][lduLduBase.H:336] 
Statistics:
	Time per iteration: 4618 [mu s]
	Time per residual norm calculation: 252.000000 [mu s]
	Time per iteration and DOF: 0.732187 [ns]
	Retrieve results bandwidth 3.003000 [GByte/s]
[OGL LOG][Proc: 0]Ux: solve_multi_gpu: 71.85899999999999 [ms]
BJhipGKOBiCGStab:  Solving for Ux, Initial residual = 0.01220485959911708, Final residual = 0.001186751339703798, No Iterations 13
[OGL LOG][Proc: 0]: global_index_init: 0.061 [ms]
[OGL LOG][Proc: 0]Uy_local_coeffs: call_update: 0 [ms]
[OGL LOG][Proc: 0]Uy_non_local_coeffs: call_update: 0 [ms]
[OGL LOG][Proc: 0]Uy: update_local_matrix_data: 15.325 [ms]
[OGL LOG][Proc: 0]Uy: update_non_local_matrix_data: 0.066 [ms]
[OGL LOG][Proc: 0]Uy_matrix: call_update: 6.28 [ms]
[OGL LOG][Proc: 0]Uy_rhs: call_update: 1.788 [ms]
[OGL LOG][Preconditioner.H:121] Generate preconditioner BJ MaxBlockSize 1
[OGL LOG][Proc: 0]Uy: init_precond: 0.443 [ms]
[OGL LOG][StoppingCriterion.H:373] Creating stopping criterion with minIter 13 frequency 1
[OGL LOG][Proc: 0]Uy: generate_solver: 0.002 [ms]
[OGL LOG][Proc: 0]Uy: solve: 64.538 [ms]
[OGL LOG][Proc: 0]Uy: copy_x_back: 2.031 [ms]
[OGL LOG][lduLduBase.H:336] 
Statistics:
	Time per iteration: 5867 [mu s]
	Time per residual norm calculation: 298.000000 [mu s]
	Time per iteration and DOF: 0.930216 [ns]
	Retrieve results bandwidth 3.098000 [GByte/s]
[OGL LOG][Proc: 0]Uy: solve_multi_gpu: 76.182 [ms]
BJhipGKOBiCGStab:  Solving for Uy, Initial residual = 0.07260760042225693, Final residual = 0.006335500975588268, No Iterations 11
[OGL LOG][Proc: 0]: global_index_init: 0.023 [ms]
[OGL LOG][Proc: 0]Uz_local_coeffs: call_update: 0 [ms]
[OGL LOG][Proc: 0]Uz_non_local_coeffs: call_update: 0 [ms]
[OGL LOG][Proc: 0]Uz: update_local_matrix_data: 15.5 [ms]
[OGL LOG][Proc: 0]Uz: update_non_local_matrix_data: 0.074 [ms]
[OGL LOG][Proc: 0]Uz_matrix: call_update: 5.737 [ms]
[OGL LOG][Proc: 0]Uz_rhs: call_update: 2.089 [ms]
[OGL LOG][Preconditioner.H:121] Generate preconditioner BJ MaxBlockSize 1
[OGL LOG][Proc: 0]Uz: init_precond: 0.433 [ms]
[OGL LOG][StoppingCriterion.H:373] Creating stopping criterion with minIter 16 frequency 1
[OGL LOG][Proc: 0]Uz: generate_solver: 0.002 [ms]
[OGL LOG][Proc: 0]Uz: solve: 65.86799999999999 [ms]
[OGL LOG][Proc: 0]Uz: copy_x_back: 2.085 [ms]
[OGL LOG][lduLduBase.H:336] 
Statistics:
	Time per iteration: 4116 [mu s]
	Time per residual norm calculation: 295.000000 [mu s]
	Time per iteration and DOF: 0.652594 [ns]
	Retrieve results bandwidth 3.018000 [GByte/s]
[OGL LOG][Proc: 0]Uz: solve_multi_gpu: 77.321 [ms]
BJhipGKOBiCGStab:  Solving for Uz, Initial residual = 0.07543576643333574, Final residual = 0.002609524498614819, No Iterations 16
[INFO] MomentumPredictor: 322.535 [ms]
[INFO] MatrixAssemblyPI: 114.315 [ms]
[INFO] MatrixAssemblyPII: 57.741 [ms]
DICPCG:  Solving for p, Initial residual = 0.05869452887059631, Final residual = 0.0005823747814501484, No Iterations 107
[INFO] SolveP: 1869.845 [ms]
time step continuity errors : sum local = 0.006170212209021535, global = -0.0009684803695852642, cumulative = -0.002723480544114664
[INFO] postSolveP: 31.449 [ms]
[OGL LOG][Proc: 0]: global_index_init: 0.457 [ms]
[OGL LOG][Proc: 0]nuTilda_local_coeffs: call_update: 0 [ms]
[OGL LOG][Proc: 0]nuTilda_non_local_coeffs: call_update: 0 [ms]
[OGL LOG][Proc: 0]nuTilda: update_local_matrix_data: 15.789 [ms]
[OGL LOG][Proc: 0]nuTilda: update_non_local_matrix_data: 0.07000000000000001 [ms]
[OGL LOG][Proc: 0]nuTilda_matrix: call_update: 7.226 [ms]
[OGL LOG][Proc: 0]nuTilda_rhs: call_update: 1.148 [ms]
[OGL LOG][Preconditioner.H:121] Generate preconditioner BJ MaxBlockSize 1
[OGL LOG][Proc: 0]nuTilda: init_precond: 0.433 [ms]
[OGL LOG][StoppingCriterion.H:373] Creating stopping criterion with minIter 2 frequency 1
[OGL LOG][Proc: 0]nuTilda: generate_solver: 0.002 [ms]
[OGL LOG][Proc: 0]nuTilda: solve: 43.454 [ms]
[OGL LOG][Proc: 0]nuTilda: copy_x_back: 2.072 [ms]
[OGL LOG][lduLduBase.H:336] 
Statistics:
	Time per iteration: 21727 [mu s]
	Time per residual norm calculation: 243.000000 [mu s]
	Time per iteration and DOF: 3.444828 [ns]
	Retrieve results bandwidth 3.037000 [GByte/s]
[OGL LOG][Proc: 0]nuTilda: solve_multi_gpu: 55.42 [ms]
BJhipGKOBiCGStab:  Solving for nuTilda, Initial residual = 0.01147410934297715, Final residual = 0.0008806340905020198, No Iterations 2
bounding nuTilda, min: -0.0001334265885416559 max: 0.007060189044268802 average: 0.0003640560233553538
[INFO] TimeStep: 3712.928 [ms]
ExecutionTime = 247.51 s  ClockTime = 248 s

Time = 50

velocityDampingConstraint velocityDamping damped 0 (0%) of cells, with max limit 300
[INFO] MatrixAssemblyU: 805.28 [ms]
[OGL LOG][Proc: 0]: global_index_init: 0.053 [ms]
[OGL LOG][Proc: 0]Ux_local_coeffs: call_update: 0 [ms]
[OGL LOG][Proc: 0]Ux_non_local_coeffs: call_update: 0 [ms]
[OGL LOG][Proc: 0]Ux: update_local_matrix_data: 15.208 [ms]
[OGL LOG][Proc: 0]Ux: update_non_local_matrix_data: 0.07000000000000001 [ms]
[OGL LOG][Proc: 0]Ux_matrix: call_update: 9.321 [ms]
[OGL LOG][Proc: 0]Ux_rhs: call_update: 4.219 [ms]
[OGL LOG][Preconditioner.H:121] Generate preconditioner BJ MaxBlockSize 1
[OGL LOG][Proc: 0]Ux: init_precond: 0.496 [ms]
[OGL LOG][StoppingCriterion.H:373] Creating stopping criterion with minIter 16 frequency 1
[OGL LOG][Proc: 0]Ux: generate_solver: 0.002 [ms]
[OGL LOG][Proc: 0]Ux: solve: 59.17 [ms]
[OGL LOG][Proc: 0]Ux: copy_x_back: 2.054 [ms]
[OGL LOG][lduLduBase.H:336] 
Statistics:
	Time per iteration: 4930 [mu s]
	Time per residual norm calculation: 296.000000 [mu s]
	Time per iteration and DOF: 0.781654 [ns]
	Retrieve results bandwidth 3.063000 [GByte/s]
[OGL LOG][Proc: 0]Ux: solve_multi_gpu: 76.383 [ms]
BJhipGKOBiCGStab:  Solving for Ux, Initial residual = 0.01173365706880065, Final residual = 0.0009004104118120953, No Iterations 12
[OGL LOG][Proc: 0]: global_index_init: 0.059 [ms]
[OGL LOG][Proc: 0]Uy_local_coeffs: call_update: 0 [ms]
[OGL LOG][Proc: 0]Uy_non_local_coeffs: call_update: 0 [ms]
[OGL LOG][Proc: 0]Uy: update_local_matrix_data: 15.545 [ms]
[OGL LOG][Proc: 0]Uy: update_non_local_matrix_data: 0.067 [ms]
[OGL LOG][Proc: 0]Uy_matrix: call_update: 6.993 [ms]
[OGL LOG][Proc: 0]Uy_rhs: call_update: 1.777 [ms]
[OGL LOG][Preconditioner.H:121] Generate preconditioner BJ MaxBlockSize 1
[OGL LOG][Proc: 0]Uy: init_precond: 0.539 [ms]
[OGL LOG][StoppingCriterion.H:373] Creating stopping criterion with minIter 13 frequency 1
[OGL LOG][Proc: 0]Uy: generate_solver: 0.002 [ms]
[OGL LOG][Proc: 0]Uy: solve: 57.088 [ms]
[OGL LOG][Proc: 0]Uy: copy_x_back: 2.063 [ms]
[OGL LOG][lduLduBase.H:336] 
Statistics:
	Time per iteration: 5189 [mu s]
	Time per residual norm calculation: 300.000000 [mu s]
	Time per iteration and DOF: 0.822719 [ns]
	Retrieve results bandwidth 3.050000 [GByte/s]
[OGL LOG][Proc: 0]Uy: solve_multi_gpu: 69.494 [ms]
BJhipGKOBiCGStab:  Solving for Uy, Initial residual = 0.06939508013552671, Final residual = 0.006392728952872938, No Iterations 11
[OGL LOG][Proc: 0]: global_index_init: 0.047 [ms]
[OGL LOG][Proc: 0]Uz_local_coeffs: call_update: 0 [ms]
[OGL LOG][Proc: 0]Uz_non_local_coeffs: call_update: 0 [ms]
[OGL LOG][Proc: 0]Uz: update_local_matrix_data: 15.715 [ms]
[OGL LOG][Proc: 0]Uz: update_non_local_matrix_data: 0.065 [ms]
[OGL LOG][Proc: 0]Uz_matrix: call_update: 9.73 [ms]
[OGL LOG][Proc: 0]Uz_rhs: call_update: 1.514 [ms]
[OGL LOG][Preconditioner.H:121] Generate preconditioner BJ MaxBlockSize 1
[OGL LOG][Proc: 0]Uz: init_precond: 0.444 [ms]
[OGL LOG][StoppingCriterion.H:373] Creating stopping criterion with minIter 19 frequency 1
[OGL LOG][Proc: 0]Uz: generate_solver: 0.002 [ms]
[OGL LOG][Proc: 0]Uz: solve: 57.123 [ms]
[OGL LOG][Proc: 0]Uz: copy_x_back: 2.092 [ms]
[OGL LOG][lduLduBase.H:336] 
Statistics:
	Time per iteration: 4760 [mu s]
	Time per residual norm calculation: 245.000000 [mu s]
	Time per iteration and DOF: 0.754701 [ns]
	Retrieve results bandwidth 3.008000 [GByte/s]
[OGL LOG][Proc: 0]Uz: solve_multi_gpu: 71.99299999999999 [ms]
BJhipGKOBiCGStab:  Solving for Uz, Initial residual = 0.07242430187462298, Final residual = 0.006372804058775326, No Iterations 12
[INFO] MomentumPredictor: 316.515 [ms]
[INFO] MatrixAssemblyPI: 114.278 [ms]
[INFO] MatrixAssemblyPII: 57.418 [ms]
DICPCG:  Solving for p, Initial residual = 0.05663227733176301, Final residual = 0.0005634246637410247, No Iterations 108
[INFO] SolveP: 1887.425 [ms]
time step continuity errors : sum local = 0.00586234140521415, global = -0.001006879756917321, cumulative = -0.003730360301031984
[INFO] postSolveP: 31.753 [ms]
[OGL LOG][Proc: 0]: global_index_init: 0.507 [ms]
[OGL LOG][Proc: 0]nuTilda_local_coeffs: call_update: 0 [ms]
[OGL LOG][Proc: 0]nuTilda_non_local_coeffs: call_update: 0 [ms]
[OGL LOG][Proc: 0]nuTilda: update_local_matrix_data: 15.674 [ms]
[OGL LOG][Proc: 0]nuTilda: update_non_local_matrix_data: 0.07000000000000001 [ms]
[OGL LOG][Proc: 0]nuTilda_matrix: call_update: 6.744 [ms]
[OGL LOG][Proc: 0]nuTilda_rhs: call_update: 1.784 [ms]
[OGL LOG][Preconditioner.H:121] Generate preconditioner BJ MaxBlockSize 1
[OGL LOG][Proc: 0]nuTilda: init_precond: 0.436 [ms]
[OGL LOG][StoppingCriterion.H:373] Creating stopping criterion with minIter 3 frequency 1
[OGL LOG][Proc: 0]nuTilda: generate_solver: 0.002 [ms]
[OGL LOG][Proc: 0]nuTilda: solve: 47.501 [ms]
[OGL LOG][Proc: 0]nuTilda: copy_x_back: 2.136 [ms]
[OGL LOG][lduLduBase.H:336] 
Statistics:
	Time per iteration: 23750 [mu s]
	Time per residual norm calculation: 241.000000 [mu s]
	Time per iteration and DOF: 3.765576 [ns]
	Retrieve results bandwidth 2.946000 [GByte/s]
[OGL LOG][Proc: 0]nuTilda: solve_multi_gpu: 59.661 [ms]
BJhipGKOBiCGStab:  Solving for nuTilda, Initial residual = 0.01441751649318602, Final residual = 0.0009220701883294791, No Iterations 2
bounding nuTilda, min: -4.983865876935652e-05 max: 0.007103376294052195 average: 0.0003734705699357046
[INFO] TimeStep: 3730.278 [ms]
ExecutionTime = 251.9 s  ClockTime = 253 s

End

Finalising parallel run
