/*---------------------------------------------------------------------------*\
| =========                 |                                                 |
| \\      /  F ield         | OpenFOAM: The Open Source CFD Toolbox           |
|  \\    /   O peration     | Version:  2306                                  |
|   \\  /    A nd           | Website:  www.openfoam.com                      |
|    \\/     M anipulation  |                                                 |
\*---------------------------------------------------------------------------*/
Build  : c423ebec-20231012 OPENFOAM=2306 version=v2306
Arch   : "LSB;label=32;scalar=64"
Exec   : simpleFoam -parallel -case /hkfs/work/workspace/scratch/eq4036-windsorbody_setup/workspace/c4995e752c480050304c160ae9efa8e6/case
Date   : Feb 16 2024
Time   : 20:32:40
Host   : hkn0412.localdomain
PID    : 439697
I/O    : uncollated
Case   : /hkfs/work/workspace/scratch/eq4036-windsorbody_setup/workspace/c4995e752c480050304c160ae9efa8e6/case
nProcs : 8
Hosts  :
(
    (hkn0412.localdomain 8)
)
Pstream initialized with:
    floatTransfer      : false
    nProcsSimpleSum    : 0
    nonBlockingExchange: 0 (tuning: 0)
    exchange algorithm : -1
    commsType          : nonBlocking
    polling iterations : 0
trapFpe: Floating point exception trapping enabled (FOAM_SIGFPE).
fileModificationChecking : Monitoring run-time modified files using timeStampMaster (fileModificationSkew 5, maxFileModificationPolls 20)
allowSystemOperations : Allowing user-supplied system call operations

// * * * * * * * * * * * * * * * * * * * * * * * * * * * * * * * * * * * * * //
Create time

--> FOAM Warning : 
    From void* Foam::dlLibraryTable::openLibrary(const Foam::fileName&, bool)
    in file db/dynamicLibrary/dlLibraryTable/dlLibraryTable.C at line 188
    Could not load "libpetscFoam.so"
libpetscFoam.so: cannot open shared object file: No such file or directory
Create mesh for time = 0


SIMPLE: convergence criteria
    field p	 tolerance 1e-08
    field U	 tolerance 1e-08
    field k	 tolerance 1e-08
    field omega	 tolerance 1e-08
    field nuTilda	 tolerance 1e-08

Reading field p

Reading field U

Reading/calculating face flux field phi

Selecting incompressible transport model Newtonian
Selecting turbulence model type RAS
Selecting RAS turbulence model SpalartAllmaras
Selecting patchDistMethod meshWave
ft2 term: inactive
RAS
{
    RASModel        SpalartAllmaras;
    turbulence      on;
    printCoeffs     on;
    sigmaNut        0.66666;
    kappa           0.41;
    Cb1             0.1355;
    Cb2             0.622;
    Cw2             0.3;
    Cw3             2;
    Cv1             7.1;
    Cs              0.3;
    ck              0.07000000000000001;
    ft2             false;
    Ct3             1.2;
    Ct4             0.5;
}

No MRF models present

Creating finite volume options from "system/fvOptions"

Selecting finite volume options type velocityDampingConstraint
    Source: velocityDamping
    - selecting all cells
    - selected 6307136 cell(s) with volume 27.82583051606852

Starting time loop

--> FOAM Warning : 
    From bool Foam::functionObjectList::read()
    in file db/functionObjects/functionObjectList/functionObjectList.C at line 1035
    Reading "system/controlDict" at line 2 to 41
    Entry 'lref' is not a dictionary
--> FOAM Warning : 
    From bool Foam::functionObjectList::read()
    in file db/functionObjects/functionObjectList/functionObjectList.C at line 1035
    Reading "system/controlDict" at line 2 to 41
    Entry 'Aref' is not a dictionary
--> FOAM Warning : 
    From bool Foam::functionObjectList::read()
    in file db/functionObjects/functionObjectList/functionObjectList.C at line 1035
    Reading "system/controlDict" at line 2 to 41
    Entry 'yawAngle' is not a dictionary
--> FOAM Warning : 
    From bool Foam::functionObjectList::read()
    in file db/functionObjects/functionObjectList/functionObjectList.C at line 1035
    Reading "system/controlDict" at line 2 to 41
    Entry 'lDomain' is not a dictionary
--> FOAM Warning : 
    From bool Foam::functionObjectList::read()
    in file db/functionObjects/functionObjectList/functionObjectList.C at line 1035
    Reading "system/controlDict" at line 2 to 41
    Entry 'bDomain' is not a dictionary
--> FOAM Warning : 
    From bool Foam::functionObjectList::read()
    in file db/functionObjects/functionObjectList/functionObjectList.C at line 1035
    Reading "system/controlDict" at line 2 to 41
    Entry 'hDomain' is not a dictionary
--> FOAM Warning : 
    From bool Foam::functionObjectList::read()
    in file db/functionObjects/functionObjectList/functionObjectList.C at line 1035
    Reading "system/controlDict" at line 2 to 41
    Entry 'xCenter' is not a dictionary
--> FOAM Warning : 
    From bool Foam::functionObjectList::read()
    in file db/functionObjects/functionObjectList/functionObjectList.C at line 1035
    Reading "system/controlDict" at line 2 to 41
    Entry 'yCenter' is not a dictionary
--> FOAM Warning : 
    From bool Foam::functionObjectList::read()
    in file db/functionObjects/functionObjectList/functionObjectList.C at line 1035
    Reading "system/controlDict" at line 2 to 41
    Entry 'zCenter' is not a dictionary
--> FOAM Warning : 
    From bool Foam::functionObjectList::read()
    in file db/functionObjects/functionObjectList/functionObjectList.C at line 1035
    Reading "system/controlDict" at line 2 to 41
    Entry 'inletPatch' is not a dictionary
--> FOAM Warning : 
    From bool Foam::functionObjectList::read()
    in file db/functionObjects/functionObjectList/functionObjectList.C at line 1035
    Reading "system/controlDict" at line 2 to 41
    Entry 'outletPatch' is not a dictionary
--> FOAM Warning : 
    From bool Foam::functionObjectList::read()
    in file db/functionObjects/functionObjectList/functionObjectList.C at line 1035
    Reading "system/controlDict" at line 2 to 41
    Entry 'wallPatches' is not a dictionary
--> FOAM Warning : 
    From bool Foam::functionObjectList::read()
    in file db/functionObjects/functionObjectList/functionObjectList.C at line 1035
    Reading "system/controlDict" at line 2 to 41
    Entry 'forcesWallPatches' is not a dictionary
--> FOAM Warning : 
    From bool Foam::functionObjectList::read()
    in file db/functionObjects/functionObjectList/functionObjectList.C at line 1035
    Reading "system/controlDict" at line 2 to 41
    Entry 'symmPatches' is not a dictionary
--> FOAM Warning : 
    From bool Foam::functionObjectList::read()
    in file db/functionObjects/functionObjectList/functionObjectList.C at line 1035
    Reading "system/controlDict" at line 2 to 41
    Entry 'Uinf' is not a dictionary
--> FOAM Warning : 
    From bool Foam::functionObjectList::read()
    in file db/functionObjects/functionObjectList/functionObjectList.C at line 1035
    Reading "system/controlDict" at line 2 to 41
    Entry 'UinfMag' is not a dictionary
--> FOAM Warning : 
    From bool Foam::functionObjectList::read()
    in file db/functionObjects/functionObjectList/functionObjectList.C at line 1035
    Reading "system/controlDict" at line 2 to 41
    Entry 'nu' is not a dictionary
--> FOAM Warning : 
    From bool Foam::functionObjectList::read()
    in file db/functionObjects/functionObjectList/functionObjectList.C at line 1035
    Reading "system/controlDict" at line 2 to 41
    Entry 'pref' is not a dictionary
--> FOAM Warning : 
    From bool Foam::functionObjectList::read()
    in file db/functionObjects/functionObjectList/functionObjectList.C at line 1035
    Reading "system/controlDict" at line 2 to 41
    Entry 'viscRatio' is not a dictionary
--> FOAM Warning : 
    From bool Foam::functionObjectList::read()
    in file db/functionObjects/functionObjectList/functionObjectList.C at line 1035
    Reading "system/controlDict" at line 2 to 41
    Entry 'Tu' is not a dictionary
--> FOAM Warning : 
    From bool Foam::functionObjectList::read()
    in file db/functionObjects/functionObjectList/functionObjectList.C at line 1035
    Reading "system/controlDict" at line 2 to 41
    Entry 'LESturbModel' is not a dictionary
--> FOAM Warning : 
    From bool Foam::functionObjectList::read()
    in file db/functionObjects/functionObjectList/functionObjectList.C at line 1035
    Reading "system/controlDict" at line 2 to 41
    Entry 'RASturbModel' is not a dictionary
--> FOAM Warning : 
    From bool Foam::functionObjectList::read()
    in file db/functionObjects/functionObjectList/functionObjectList.C at line 1035
    Reading "system/controlDict" at line 2 to 41
    Entry 'deltaTurb' is not a dictionary
--> FOAM Warning : 
    From bool Foam::functionObjectList::read()
    in file db/functionObjects/functionObjectList/functionObjectList.C at line 1035
    Reading "system/controlDict" at line 2 to 41
    Entry 'dt' is not a dictionary
--> FOAM Warning : 
    From bool Foam::functionObjectList::read()
    in file db/functionObjects/functionObjectList/functionObjectList.C at line 1035
    Reading "system/controlDict" at line 2 to 41
    Entry 'tAvg' is not a dictionary
--> FOAM Warning : 
    From bool Foam::functionObjectList::read()
    in file db/functionObjects/functionObjectList/functionObjectList.C at line 1035
    Reading "system/controlDict" at line 2 to 41
    Entry 'tEnd' is not a dictionary
--> FOAM Warning : 
    From bool Foam::functionObjectList::read()
    in file db/functionObjects/functionObjectList/functionObjectList.C at line 1035
    Reading "system/controlDict" at line 2 to 41
    Entry 'writeInterval_' is not a dictionary
--> FOAM Warning : 
    From bool Foam::functionObjectList::read()
    in file db/functionObjects/functionObjectList/functionObjectList.C at line 1035
    Reading "system/controlDict" at line 2 to 41
    Entry 'nCores' is not a dictionary
--> FOAM Warning : 
    From bool Foam::functionObjectList::read()
    in file db/functionObjects/functionObjectList/functionObjectList.C at line 1035
    Reading "system/controlDict" at line 2 to 41
    Entry 'interpScheme' is not a dictionary
--> FOAM Warning : 
    From bool Foam::functionObjectList::read()
    in file db/functionObjects/functionObjectList/functionObjectList.C at line 1035
    Reading "system/controlDict" at line 2 to 41
    Entry 'probeField' is not a dictionary
wallShearStress wallShearStress:
    processing wall patches: 
        Windsor_Body
        CFDWT_Floor
        Windsor_Pins
        Windsor_Base

pressure calc_cp:
    Operating mode: staticCoeff
    Not including hydrostatic effects

forceCoeffs forceCoeffsAll:
    rho: rhoInf
    Freestream density (rhoInf) set to 1
    Not including porosity effects
    magUInf: 40
    lRef   : 0.6375
    Aref   : 0.1124
    rhoInf : 1
    Selecting all coefficients
    - Drag force: Cd
    - Drag force front: Cd(f)
    - Drag force rear: Cd(r)
    - Lift force: Cl
    - Lift force front: Cl(f)
    - Lift force rear: Cl(r)
    - Pitch moment: CmPitch
    - Roll moment: CmRoll
    - Yaw moment: CmYaw
    - Side force: Cs
    - Side force front: Cs(f)
    - Side force rear: Cs(r)


forceCoeffs dragCoeffBase:
    rho: rhoInf
    Freestream density (rhoInf) set to 1
    Not including porosity effects
    magUInf: 40
    lRef   : 0.6375
    Aref   : 0.1124
    rhoInf : 1
    Selecting coefficients:
    - Drag force: Cd


--> FOAM Warning : 
    From virtual void Foam::probes::findElements(const Foam::fvMesh&)
    in file probes/probes.C at line 249
    Location (-2 0 1.3) seems to be on multiple domains: cell 382251 on my domain 0 and cell 560069 on some other domain.
This might happen if the probe location is on a processor patch. Change the location slightly to prevent this.
--> FOAM Warning : 
    From virtual void Foam::probes::findElements(const Foam::fvMesh&)
    in file probes/probes.C at line 263
    Location (-2 0 1.3) seems to be on multiple domains: cell 1138605 on my domain 0 and face 2399942 on some other domain.
This might happen if the probe location is on a processor patch. Change the location slightly to prevent this.
Time = 1

velocityDampingConstraint velocityDamping damped 0 (0%) of cells, with max limit 300
[OGL LOG][lduLduBase.H:119] Initialising OGL
	OGL commit:  e75313f+
	Branch: dev 
	Build type: Debug
	Ginkgo version: 1.8.0 ( develop)
	Ginkgo commit: sparse-communicator
	MPI is GPU aware: 1
	Forces host buffer based communication: 0
	CPU ranks per GPU: 1
	Matrix format: Coo
	End OGL_INFO
[OGL LOG][Proc: 0]: global_index_init: 2.468 [ms]
[OGL LOG][Proc: 0]Ux_local_cols: call_init: 0.267 [ms]
[OGL LOG][Proc: 0]Ux_local_rows: call_init: 0.024 [ms]
[OGL LOG][Proc: 0]Ux_local_ldu_map: call_init: 0.005 [ms]
[OGL LOG][Proc: 0]Ux_local_coeffs: call_init: 3.428 [ms]
[OGL LOG][Proc: 0]Ux_non_local_cols: call_init: 0.046 [ms]
[OGL LOG][Proc: 0]Ux_non_local_rows: call_init: 0.014 [ms]
[OGL LOG][Proc: 0]Ux_non_local_ldu_map: call_init: 0.008 [ms]
[OGL LOG][Proc: 0]Ux_non_local_coeffs: call_init: 0.013 [ms]
[OGL LOG][Proc: 0]Ux: init_local_sparsity_pattern: 24086.462 [ms]
[OGL LOG][Proc: 0]Ux: init_non_local_sparsity_pattern: 3505.839 [ms]
[OGL LOG][Proc: 0]Ux: update_local_matrix_data: 66.372 [ms]
[OGL LOG][Proc: 0]Ux: update_non_local_matrix_data: 0.589 [ms]
[OGL LOG][Proc: 0]device_partition: call_init: 1.711 [ms]
[OGL LOG][Proc: 0]Ux_matrix: call_init: 71.602 [ms]
[OGL LOG][Proc: 0]Ux_rhs: call_init: 2.157 [ms]
[OGL LOG][Proc: 0]Ux_solution: call_init: 1.335 [ms]
[OGL LOG][Preconditioner.H:121] Generate preconditioner BJ MaxBlockSize 1
[OGL LOG][Proc: 0]Ux: init_precond: 12.102 [ms]
[OGL LOG][StoppingCriterion.H:239] Creating stopping criterion with minIter 0 frequency 1
[OGL LOG][Proc: 0]Ux: generate_solver: 0.282 [ms]
[OGL LOG][Proc: 0]Ux: solve: 190.049 [ms]
[OGL LOG][Proc: 0]Ux: copy_x_back: 2.386 [ms]
[OGL LOG][lduLduBase.H:330] 
Statistics:
	Time per iteration: 27149 [mu s]
	Time per residual norm calculation: 4280.000000 [mu s]
	Time per iteration and DOF: 4.304489 [ns]
	Retrieve results bandwidth 2.637000 [GByte/s]
[OGL LOG][Proc: 0]Ux: solve_multi_gpu: 340.183 [ms]
BJcudaGKOBiCGStab:  Solving for Ux, Initial residual = 1.000000000000409, Final residual = 0.04568454760918973, No Iterations 7
[OGL LOG][lduLduBase.H:119] Initialising OGL
	OGL commit:  e75313f+
	Branch: dev 
	Build type: Debug
	Ginkgo version: 1.8.0 ( develop)
	Ginkgo commit: sparse-communicator
	MPI is GPU aware: 1
	Forces host buffer based communication: 0
	CPU ranks per GPU: 1
	Matrix format: Coo
	End OGL_INFO
[OGL LOG][Proc: 0]: global_index_init: 0.02 [ms]
[OGL LOG][Proc: 0]Uy_local_cols: call_init: 0.035 [ms]
[OGL LOG][Proc: 0]Uy_local_rows: call_init: 0.022 [ms]
[OGL LOG][Proc: 0]Uy_local_ldu_map: call_init: 0.006 [ms]
[OGL LOG][Proc: 0]Uy_local_coeffs: call_init: 0.701 [ms]
[OGL LOG][Proc: 0]Uy_non_local_cols: call_init: 0.027 [ms]
[OGL LOG][Proc: 0]Uy_non_local_rows: call_init: 0.008999999999999999 [ms]
[OGL LOG][Proc: 0]Uy_non_local_ldu_map: call_init: 0.015 [ms]
[OGL LOG][Proc: 0]Uy_non_local_coeffs: call_init: 0.019 [ms]
[OGL LOG][Proc: 0]Uy: init_local_sparsity_pattern: 24069.901 [ms]
[OGL LOG][Proc: 0]Uy: init_non_local_sparsity_pattern: 3537.366 [ms]
[OGL LOG][Proc: 0]Uy: update_local_matrix_data: 31.957 [ms]
[OGL LOG][Proc: 0]Uy: update_non_local_matrix_data: 0.501 [ms]
[OGL LOG][Proc: 0]Uy_matrix: call_init: 82.01600000000001 [ms]
[OGL LOG][Proc: 0]Uy_rhs: call_init: 1.197 [ms]
[OGL LOG][Proc: 0]Uy_solution: call_init: 2.639 [ms]
[OGL LOG][Preconditioner.H:121] Generate preconditioner BJ MaxBlockSize 1
[OGL LOG][Proc: 0]Uy: init_precond: 1.614 [ms]
[OGL LOG][StoppingCriterion.H:239] Creating stopping criterion with minIter 0 frequency 1
[OGL LOG][Proc: 0]Uy: generate_solver: 0.023 [ms]
[OGL LOG][Proc: 0]Uy: solve: 150.276 [ms]
[OGL LOG][Proc: 0]Uy: copy_x_back: 2.14 [ms]
[OGL LOG][lduLduBase.H:330] 
Statistics:
	Time per iteration: 15027 [mu s]
	Time per residual norm calculation: 1358.000000 [mu s]
	Time per iteration and DOF: 2.382539 [ns]
	Retrieve results bandwidth 2.940000 [GByte/s]
[OGL LOG][Proc: 0]Uy: solve_multi_gpu: 297.225 [ms]
BJcudaGKOBiCGStab:  Solving for Uy, Initial residual = 1.000000000000022, Final residual = 0.07725065440051609, No Iterations 10
[OGL LOG][lduLduBase.H:119] Initialising OGL
	OGL commit:  e75313f+
	Branch: dev 
	Build type: Debug
	Ginkgo version: 1.8.0 ( develop)
	Ginkgo commit: sparse-communicator
	MPI is GPU aware: 1
	Forces host buffer based communication: 0
	CPU ranks per GPU: 1
	Matrix format: Coo
	End OGL_INFO
[OGL LOG][Proc: 0]: global_index_init: 0.128 [ms]
[OGL LOG][Proc: 0]Uz_local_cols: call_init: 0.298 [ms]
[OGL LOG][Proc: 0]Uz_local_rows: call_init: 0.404 [ms]
[OGL LOG][Proc: 0]Uz_local_ldu_map: call_init: 0.235 [ms]
[OGL LOG][Proc: 0]Uz_local_coeffs: call_init: 0.878 [ms]
[OGL LOG][Proc: 0]Uz_non_local_cols: call_init: 0.289 [ms]
[OGL LOG][Proc: 0]Uz_non_local_rows: call_init: 0.192 [ms]
[OGL LOG][Proc: 0]Uz_non_local_ldu_map: call_init: 0.213 [ms]
[OGL LOG][Proc: 0]Uz_non_local_coeffs: call_init: 0.205 [ms]
[OGL LOG][Proc: 0]Uz: init_local_sparsity_pattern: 24071.726 [ms]
[OGL LOG][Proc: 0]Uz: init_non_local_sparsity_pattern: 3518.501 [ms]
[OGL LOG][Proc: 0]Uz: update_local_matrix_data: 34.319 [ms]
[OGL LOG][Proc: 0]Uz: update_non_local_matrix_data: 0.459 [ms]
[OGL LOG][Proc: 0]Uz_matrix: call_init: 77.794 [ms]
[OGL LOG][Proc: 0]Uz_rhs: call_init: 1.035 [ms]
[OGL LOG][Proc: 0]Uz_solution: call_init: 2.186 [ms]
[OGL LOG][Preconditioner.H:121] Generate preconditioner BJ MaxBlockSize 1
[OGL LOG][Proc: 0]Uz: init_precond: 1.563 [ms]
[OGL LOG][StoppingCriterion.H:239] Creating stopping criterion with minIter 0 frequency 1
[OGL LOG][Proc: 0]Uz: generate_solver: 0.022 [ms]
[OGL LOG][Proc: 0]Uz: solve: 60.956 [ms]
[OGL LOG][Proc: 0]Uz: copy_x_back: 2.248 [ms]
[OGL LOG][lduLduBase.H:330] 
Statistics:
	Time per iteration: 60956 [mu s]
	Time per residual norm calculation: 1818.000000 [mu s]
	Time per iteration and DOF: 9.664608 [ns]
	Retrieve results bandwidth 2.799000 [GByte/s]
[OGL LOG][Proc: 0]Uz: solve_multi_gpu: 204.155 [ms]
BJcudaGKOBiCGStab:  Solving for Uz, Initial residual = 1.000000000000021, Final residual = 0.07317246117889371, No Iterations 1
[OGL LOG][lduLduBase.H:119] Initialising OGL
	OGL commit:  e75313f+
	Branch: dev 
	Build type: Debug
	Ginkgo version: 1.8.0 ( develop)
	Ginkgo commit: sparse-communicator
	MPI is GPU aware: 1
	Forces host buffer based communication: 0
	CPU ranks per GPU: 1
	Matrix format: Coo
	End OGL_INFO
[OGL LOG][Proc: 0]: global_index_init: 0.023 [ms]
[OGL LOG][Proc: 0]p_local_cols: call_init: 0.045 [ms]
[OGL LOG][Proc: 0]p_local_rows: call_init: 0.028 [ms]
[OGL LOG][Proc: 0]p_local_ldu_map: call_init: 0.028 [ms]
[OGL LOG][Proc: 0]p_local_coeffs: call_init: 0.755 [ms]
[OGL LOG][Proc: 0]p_non_local_cols: call_init: 0.013 [ms]
[OGL LOG][Proc: 0]p_non_local_rows: call_init: 0.008999999999999999 [ms]
[OGL LOG][Proc: 0]p_non_local_ldu_map: call_init: 0.005 [ms]
[OGL LOG][Proc: 0]p_non_local_coeffs: call_init: 0.008 [ms]
[OGL LOG][Proc: 0]p: init_local_sparsity_pattern: 23852.246 [ms]
[OGL LOG][Proc: 0]p: init_non_local_sparsity_pattern: 3721.251 [ms]
[OGL LOG][Proc: 0]p: update_local_matrix_data: 21.813 [ms]
[OGL LOG][Proc: 0]p: update_non_local_matrix_data: 0.556 [ms]
[OGL LOG][Proc: 0]p_matrix: call_init: 78.786 [ms]
[OGL LOG][Proc: 0]p_rhs: call_init: 1.022 [ms]
[OGL LOG][Proc: 0]p_solution: call_init: 2.006 [ms]
[OGL LOG][Preconditioner.H:271] Generate preconditioner GISAI SparsityPower 1
[OGL LOG][Proc: 0]p: init_precond: 150.8 [ms]
[OGL LOG][StoppingCriterion.H:239] Creating stopping criterion with minIter 0 frequency 1
[OGL LOG][Proc: 0]p: generate_solver: 0.081 [ms]
[OGL LOG][Proc: 0]p: solve: 4117.635 [ms]
[OGL LOG][Proc: 0]p: copy_x_back: 2.218 [ms]
[OGL LOG][lduLduBase.H:330] 
Statistics:
	Time per iteration: 4113 [mu s]
	Time per residual norm calculation: 1262.000000 [mu s]
	Time per iteration and DOF: 0.652118 [ns]
	Retrieve results bandwidth 2.837000 [GByte/s]
[OGL LOG][Proc: 0]p: solve_multi_gpu: 4412.576 [ms]
GISAIcudaGKOCG:  Solving for p, Initial residual = 1.00000000000024, Final residual = 0.9999999998037831, No Iterations 1001
time step continuity errors : sum local = 0.3622888498997754, global = -0.0009982012409064393, cumulative = -0.0009982012409064393
[OGL LOG][lduLduBase.H:119] Initialising OGL
	OGL commit:  e75313f+
	Branch: dev 
	Build type: Debug
	Ginkgo version: 1.8.0 ( develop)
	Ginkgo commit: sparse-communicator
	MPI is GPU aware: 1
	Forces host buffer based communication: 0
	CPU ranks per GPU: 1
	Matrix format: Coo
	End OGL_INFO
[OGL LOG][Proc: 0]: global_index_init: 0.463 [ms]
[OGL LOG][Proc: 0]nuTilda_local_cols: call_init: 0.046 [ms]
[OGL LOG][Proc: 0]nuTilda_local_rows: call_init: 0.008999999999999999 [ms]
[OGL LOG][Proc: 0]nuTilda_local_ldu_map: call_init: 0.032 [ms]
[OGL LOG][Proc: 0]nuTilda_local_coeffs: call_init: 0.766 [ms]
[OGL LOG][Proc: 0]nuTilda_non_local_cols: call_init: 0.011 [ms]
[OGL LOG][Proc: 0]nuTilda_non_local_rows: call_init: 0.003 [ms]
[OGL LOG][Proc: 0]nuTilda_non_local_ldu_map: call_init: 0.004 [ms]
[OGL LOG][Proc: 0]nuTilda_non_local_coeffs: call_init: 0.008999999999999999 [ms]
[OGL LOG][Proc: 0]nuTilda: init_local_sparsity_pattern: 23782.4 [ms]
[OGL LOG][Proc: 0]nuTilda: init_non_local_sparsity_pattern: 3977.395 [ms]
[OGL LOG][Proc: 0]nuTilda: update_local_matrix_data: 28.035 [ms]
[OGL LOG][Proc: 0]nuTilda: update_non_local_matrix_data: 0.458 [ms]
[OGL LOG][Proc: 0]nuTilda_matrix: call_init: 79.492 [ms]
[OGL LOG][Proc: 0]nuTilda_rhs: call_init: 1.079 [ms]
[OGL LOG][Proc: 0]nuTilda_solution: call_init: 1.445 [ms]
[OGL LOG][Preconditioner.H:121] Generate preconditioner BJ MaxBlockSize 1
[OGL LOG][Proc: 0]nuTilda: init_precond: 1.468 [ms]
[OGL LOG][StoppingCriterion.H:239] Creating stopping criterion with minIter 0 frequency 1
[OGL LOG][Proc: 0]nuTilda: generate_solver: 0.028 [ms]
[OGL LOG][Proc: 0]nuTilda: solve: 81.405 [ms]
[OGL LOG][Proc: 0]nuTilda: copy_x_back: 2.253 [ms]
[OGL LOG][lduLduBase.H:330] 
Statistics:
	Time per iteration: 27135 [mu s]
	Time per residual norm calculation: 1609.000000 [mu s]
	Time per iteration and DOF: 4.302270 [ns]
	Retrieve results bandwidth 2.793000 [GByte/s]
[OGL LOG][Proc: 0]nuTilda: solve_multi_gpu: 232.252 [ms]
BJcudaGKOBiCGStab:  Solving for nuTilda, Initial residual = 0.9999999938174633, Final residual = 0.06262067460509287, No Iterations 3
ExecutionTime = 154.56 s  ClockTime = 157 s

--> FOAM Warning : 
    From virtual bool Foam::functionObjects::fieldSelection::checkSelection()
    in file functionObjects/fieldSelections/fieldSelection/fieldSelection.C at line 166
    Field k not found
--> FOAM Warning : 
    From virtual bool Foam::functionObjects::fieldSelection::checkSelection()
    in file functionObjects/fieldSelections/fieldSelection/fieldSelection.C at line 166
    Field gammaInt not found
--> FOAM Warning : 
    From virtual bool Foam::functionObjects::fieldSelection::checkSelection()
    in file functionObjects/fieldSelections/fieldSelection/fieldSelection.C at line 166
    Field omega not found
--> FOAM Warning : 
    From virtual bool Foam::functionObjects::fieldSelection::checkSelection()
    in file functionObjects/fieldSelections/fieldSelection/fieldSelection.C at line 166
    Field ReThetat not found
--> FOAM Warning : 
    From virtual bool Foam::functionObjects::fieldSelection::checkSelection()
    in file functionObjects/fieldSelections/fieldSelection/fieldSelection.C at line 166
    Field epsilon not found
--> FOAM Warning : 
    From virtual bool Foam::functionObjects::solverFieldSelection::updateSelection()
    in file functionObjects/fieldSelections/solverFieldSelection/solverFieldSelection.C at line 85
    Valid solver fields are: 3(U nuTilda p)Time = 2

velocityDampingConstraint velocityDamping damped 0 (0%) of cells, with max limit 300
[OGL LOG][Proc: 0]: global_index_init: 0.054 [ms]
[OGL LOG][Proc: 0]Ux_local_coeffs: call_update: 0.001 [ms]
[OGL LOG][Proc: 0]Ux_non_local_coeffs: call_update: 0 [ms]
[OGL LOG][Proc: 0]Ux: update_local_matrix_data: 35.75 [ms]
[OGL LOG][Proc: 0]Ux: update_non_local_matrix_data: 0.478 [ms]
[OGL LOG][Proc: 0]Ux_matrix: call_update: 2.497 [ms]
[OGL LOG][Proc: 0]Ux_rhs: call_update: 1.011 [ms]
[OGL LOG][Preconditioner.H:121] Generate preconditioner BJ MaxBlockSize 1
[OGL LOG][Proc: 0]Ux: init_precond: 1.349 [ms]
[OGL LOG][StoppingCriterion.H:239] Creating stopping criterion with minIter 8 frequency 1
[OGL LOG][Proc: 0]Ux: generate_solver: 0.017 [ms]
[OGL LOG][Proc: 0]Ux: solve: 111.536 [ms]
[OGL LOG][Proc: 0]Ux: copy_x_back: 2.213 [ms]
[OGL LOG][lduLduBase.H:330] 
Statistics:
	Time per iteration: 12392 [mu s]
	Time per residual norm calculation: 1818.000000 [mu s]
	Time per iteration and DOF: 1.964759 [ns]
	Retrieve results bandwidth 2.843000 [GByte/s]
[OGL LOG][Proc: 0]Ux: solve_multi_gpu: 123.021 [ms]
BJcudaGKOBiCGStab:  Solving for Ux, Initial residual = 0.05654870247698886, Final residual = 0.004352654846312106, No Iterations 9
[OGL LOG][Proc: 0]: global_index_init: 0.02 [ms]
[OGL LOG][Proc: 0]Uy_local_coeffs: call_update: 0 [ms]
[OGL LOG][Proc: 0]Uy_non_local_coeffs: call_update: 0 [ms]
[OGL LOG][Proc: 0]Uy: update_local_matrix_data: 35.694 [ms]
[OGL LOG][Proc: 0]Uy: update_non_local_matrix_data: 0.423 [ms]
[OGL LOG][Proc: 0]Uy_matrix: call_update: 2.309 [ms]
[OGL LOG][Proc: 0]Uy_rhs: call_update: 1.231 [ms]
[OGL LOG][Preconditioner.H:121] Generate preconditioner BJ MaxBlockSize 1
[OGL LOG][Proc: 0]Uy: init_precond: 1.722 [ms]
[OGL LOG][StoppingCriterion.H:239] Creating stopping criterion with minIter 12 frequency 1
[OGL LOG][Proc: 0]Uy: generate_solver: 0.014 [ms]
[OGL LOG][Proc: 0]Uy: solve: 78.539 [ms]
[OGL LOG][Proc: 0]Uy: copy_x_back: 2.276 [ms]
[OGL LOG][lduLduBase.H:330] 
Statistics:
	Time per iteration: 11219 [mu s]
	Time per residual norm calculation: 1426.000000 [mu s]
	Time per iteration and DOF: 1.778779 [ns]
	Retrieve results bandwidth 2.764000 [GByte/s]
[OGL LOG][Proc: 0]Uy: solve_multi_gpu: 90.441 [ms]
BJcudaGKOBiCGStab:  Solving for Uy, Initial residual = 0.07963580266741456, Final residual = 0.007563681712911973, No Iterations 7
[OGL LOG][Proc: 0]: global_index_init: 0.014 [ms]
[OGL LOG][Proc: 0]Uz_local_coeffs: call_update: 0 [ms]
[OGL LOG][Proc: 0]Uz_non_local_coeffs: call_update: 0 [ms]
[OGL LOG][Proc: 0]Uz: update_local_matrix_data: 35.086 [ms]
[OGL LOG][Proc: 0]Uz: update_non_local_matrix_data: 0.469 [ms]
[OGL LOG][Proc: 0]Uz_matrix: call_update: 2.395 [ms]
[OGL LOG][Proc: 0]Uz_rhs: call_update: 0.91 [ms]
[OGL LOG][Preconditioner.H:121] Generate preconditioner BJ MaxBlockSize 1
[OGL LOG][Proc: 0]Uz: init_precond: 1.756 [ms]
[OGL LOG][StoppingCriterion.H:239] Creating stopping criterion with minIter 1 frequency 1
[OGL LOG][Proc: 0]Uz: generate_solver: 0.014 [ms]
[OGL LOG][Proc: 0]Uz: solve: 57.136 [ms]
[OGL LOG][Proc: 0]Uz: copy_x_back: 2.301 [ms]
[OGL LOG][lduLduBase.H:330] 
Statistics:
	Time per iteration: 28568 [mu s]
	Time per residual norm calculation: 1268.000000 [mu s]
	Time per iteration and DOF: 4.529473 [ns]
	Retrieve results bandwidth 2.734000 [GByte/s]
[OGL LOG][Proc: 0]Uz: solve_multi_gpu: 69.35899999999999 [ms]
BJcudaGKOBiCGStab:  Solving for Uz, Initial residual = 0.3710638258742397, Final residual = 0.02986652247619196, No Iterations 2
[OGL LOG][Proc: 0]: global_index_init: 0.074 [ms]
[OGL LOG][Proc: 0]p_local_coeffs: call_update: 0 [ms]
[OGL LOG][Proc: 0]p_non_local_coeffs: call_update: 0 [ms]
[OGL LOG][Proc: 0]p: update_local_matrix_data: 27.074 [ms]
[OGL LOG][Proc: 0]p: update_non_local_matrix_data: 0.458 [ms]
[OGL LOG][Proc: 0]p_matrix: call_update: 2.329 [ms]
[OGL LOG][Proc: 0]p_rhs: call_update: 0.948 [ms]
[OGL LOG][Preconditioner.H:271] Generate preconditioner GISAI SparsityPower 1
[OGL LOG][Proc: 0]p: init_precond: 98.51900000000001 [ms]
[OGL LOG][StoppingCriterion.H:239] Creating stopping criterion with minIter 600 frequency 11
[OGL LOG][Proc: 0]p: generate_solver: 0.018 [ms]
[OGL LOG][Proc: 0]p: solve: 2891.652 [ms]
[OGL LOG][Proc: 0]p: copy_x_back: 2.323 [ms]
[OGL LOG][lduLduBase.H:330] 
Statistics:
	Time per iteration: 2885 [mu s]
	Time per residual norm calculation: 1259.000000 [mu s]
	Time per iteration and DOF: 0.457418 [ns]
	Retrieve results bandwidth 2.708000 [GByte/s]
[OGL LOG][Proc: 0]p: solve_multi_gpu: 3000.36 [ms]
GISAIcudaGKOCG:  Solving for p, Initial residual = 0.99999999827095, Final residual = 0.9999999982005975, No Iterations 1002
time step continuity errors : sum local = 1.955995462238515, global = -0.001786954988563735, cumulative = -0.002785156229470174
[OGL LOG][Proc: 0]: global_index_init: 0.018 [ms]
[OGL LOG][Proc: 0]nuTilda_local_coeffs: call_update: 0 [ms]
[OGL LOG][Proc: 0]nuTilda_non_local_coeffs: call_update: 0 [ms]
[OGL LOG][Proc: 0]nuTilda: update_local_matrix_data: 34.092 [ms]
[OGL LOG][Proc: 0]nuTilda: update_non_local_matrix_data: 0.422 [ms]
[OGL LOG][Proc: 0]nuTilda_matrix: call_update: 2.258 [ms]
[OGL LOG][Proc: 0]nuTilda_rhs: call_update: 1.089 [ms]
[OGL LOG][Preconditioner.H:121] Generate preconditioner BJ MaxBlockSize 1
[OGL LOG][Proc: 0]nuTilda: init_precond: 1.804 [ms]
[OGL LOG][StoppingCriterion.H:239] Creating stopping criterion with minIter 4 frequency 1
[OGL LOG][Proc: 0]nuTilda: generate_solver: 0.017 [ms]
[OGL LOG][Proc: 0]nuTilda: solve: 55.421 [ms]
[OGL LOG][Proc: 0]nuTilda: copy_x_back: 2.171 [ms]
[OGL LOG][lduLduBase.H:330] 
Statistics:
	Time per iteration: 27710 [mu s]
	Time per residual norm calculation: 1268.000000 [mu s]
	Time per iteration and DOF: 4.393436 [ns]
	Retrieve results bandwidth 2.898000 [GByte/s]
[OGL LOG][Proc: 0]nuTilda: solve_multi_gpu: 72.087 [ms]
BJcudaGKOBiCGStab:  Solving for nuTilda, Initial residual = 0.2747921492436312, Final residual = 0.01775431740341417, No Iterations 2
ExecutionTime = 160.98 s  ClockTime = 199 s

Time = 3

velocityDampingConstraint velocityDamping damped 0 (0%) of cells, with max limit 300
[OGL LOG][Proc: 0]: global_index_init: 0.012 [ms]
[OGL LOG][Proc: 0]Ux_local_coeffs: call_update: 0 [ms]
[OGL LOG][Proc: 0]Ux_non_local_coeffs: call_update: 0 [ms]
[OGL LOG][Proc: 0]Ux: update_local_matrix_data: 35.015 [ms]
[OGL LOG][Proc: 0]Ux: update_non_local_matrix_data: 0.45 [ms]
[OGL LOG][Proc: 0]Ux_matrix: call_update: 2.736 [ms]
[OGL LOG][Proc: 0]Ux_rhs: call_update: 0.983 [ms]
[OGL LOG][Preconditioner.H:121] Generate preconditioner BJ MaxBlockSize 1
[OGL LOG][Proc: 0]Ux: init_precond: 1.426 [ms]
[OGL LOG][StoppingCriterion.H:239] Creating stopping criterion with minIter 10 frequency 1
[OGL LOG][Proc: 0]Ux: generate_solver: 0.015 [ms]
[OGL LOG][Proc: 0]Ux: solve: 89.283 [ms]
[OGL LOG][Proc: 0]Ux: copy_x_back: 2.254 [ms]
[OGL LOG][lduLduBase.H:330] 
Statistics:
	Time per iteration: 12754 [mu s]
	Time per residual norm calculation: 1260.000000 [mu s]
	Time per iteration and DOF: 2.022154 [ns]
	Retrieve results bandwidth 2.791000 [GByte/s]
[OGL LOG][Proc: 0]Ux: solve_multi_gpu: 100.921 [ms]
BJcudaGKOBiCGStab:  Solving for Ux, Initial residual = 0.1202784072319357, Final residual = 0.005680062735535232, No Iterations 7
[OGL LOG][Proc: 0]: global_index_init: 0.056 [ms]
[OGL LOG][Proc: 0]Uy_local_coeffs: call_update: 0 [ms]
[OGL LOG][Proc: 0]Uy_non_local_coeffs: call_update: 0 [ms]
[OGL LOG][Proc: 0]Uy: update_local_matrix_data: 34.649 [ms]
[OGL LOG][Proc: 0]Uy: update_non_local_matrix_data: 0.435 [ms]
[OGL LOG][Proc: 0]Uy_matrix: call_update: 2.248 [ms]
[OGL LOG][Proc: 0]Uy_rhs: call_update: 1.298 [ms]
[OGL LOG][Preconditioner.H:121] Generate preconditioner BJ MaxBlockSize 1
[OGL LOG][Proc: 0]Uy: init_precond: 1.377 [ms]
[OGL LOG][StoppingCriterion.H:239] Creating stopping criterion with minIter 8 frequency 1
[OGL LOG][Proc: 0]Uy: generate_solver: 0.015 [ms]
[OGL LOG][Proc: 0]Uy: solve: 90.642 [ms]
[OGL LOG][Proc: 0]Uy: copy_x_back: 2.316 [ms]
[OGL LOG][lduLduBase.H:330] 
Statistics:
	Time per iteration: 12948 [mu s]
	Time per residual norm calculation: 1446.000000 [mu s]
	Time per iteration and DOF: 2.052913 [ns]
	Retrieve results bandwidth 2.717000 [GByte/s]
[OGL LOG][Proc: 0]Uy: solve_multi_gpu: 103.546 [ms]
BJcudaGKOBiCGStab:  Solving for Uy, Initial residual = 0.1081502523130648, Final residual = 0.01076902244682936, No Iterations 7
[OGL LOG][Proc: 0]: global_index_init: 0.013 [ms]
[OGL LOG][Proc: 0]Uz_local_coeffs: call_update: 0 [ms]
[OGL LOG][Proc: 0]Uz_non_local_coeffs: call_update: 0 [ms]
[OGL LOG][Proc: 0]Uz: update_local_matrix_data: 34.972 [ms]
[OGL LOG][Proc: 0]Uz: update_non_local_matrix_data: 0.452 [ms]
[OGL LOG][Proc: 0]Uz_matrix: call_update: 2.31 [ms]
[OGL LOG][Proc: 0]Uz_rhs: call_update: 0.886 [ms]
[OGL LOG][Preconditioner.H:121] Generate preconditioner BJ MaxBlockSize 1
[OGL LOG][Proc: 0]Uz: init_precond: 1.766 [ms]
[OGL LOG][StoppingCriterion.H:239] Creating stopping criterion with minIter 3 frequency 1
[OGL LOG][Proc: 0]Uz: generate_solver: 0.014 [ms]
[OGL LOG][Proc: 0]Uz: solve: 98.605 [ms]
[OGL LOG][Proc: 0]Uz: copy_x_back: 2.177 [ms]
[OGL LOG][lduLduBase.H:330] 
Statistics:
	Time per iteration: 12325 [mu s]
	Time per residual norm calculation: 1120.000000 [mu s]
	Time per iteration and DOF: 1.954136 [ns]
	Retrieve results bandwidth 2.890000 [GByte/s]
[OGL LOG][Proc: 0]Uz: solve_multi_gpu: 107.449 [ms]
BJcudaGKOBiCGStab:  Solving for Uz, Initial residual = 0.12003207062237, Final residual = 0.01048318833766938, No Iterations 8
[OGL LOG][Proc: 0]: global_index_init: 0.03 [ms]
[OGL LOG][Proc: 0]p_local_coeffs: call_update: 0 [ms]
[OGL LOG][Proc: 0]p_non_local_coeffs: call_update: 0 [ms]
[OGL LOG][Proc: 0]p: update_local_matrix_data: 26.48 [ms]
[OGL LOG][Proc: 0]p: update_non_local_matrix_data: 0.455 [ms]
[OGL LOG][Proc: 0]p_matrix: call_update: 2.278 [ms]
[OGL LOG][Proc: 0]p_rhs: call_update: 0.998 [ms]
[OGL LOG][Preconditioner.H:271] Generate preconditioner GISAI SparsityPower 1
[OGL LOG][Proc: 0]p: init_precond: 95.78700000000001 [ms]
[OGL LOG][StoppingCriterion.H:239] Creating stopping criterion with minIter 601 frequency 14
[OGL LOG][Proc: 0]p: generate_solver: 0.015 [ms]
[OGL LOG][Proc: 0]p: solve: 2905.825 [ms]
[OGL LOG][Proc: 0]p: copy_x_back: 2.311 [ms]
[OGL LOG][lduLduBase.H:330] 
Statistics:
	Time per iteration: 2879 [mu s]
	Time per residual norm calculation: 1414.000000 [mu s]
	Time per iteration and DOF: 0.456467 [ns]
	Retrieve results bandwidth 2.723000 [GByte/s]
[OGL LOG][Proc: 0]p: solve_multi_gpu: 3011.765 [ms]
GISAIcudaGKOCG:  Solving for p, Initial residual = 0.9999999859908795, Final residual = 0.999999985974439, No Iterations 1009
time step continuity errors : sum local = 4.945002401716316, global = -0.002871099004082321, cumulative = -0.005656255233552496
[OGL LOG][Proc: 0]: global_index_init: 0.017 [ms]
[OGL LOG][Proc: 0]nuTilda_local_coeffs: call_update: 0 [ms]
[OGL LOG][Proc: 0]nuTilda_non_local_coeffs: call_update: 0 [ms]
[OGL LOG][Proc: 0]nuTilda: update_local_matrix_data: 33.689 [ms]
[OGL LOG][Proc: 0]nuTilda: update_non_local_matrix_data: 0.488 [ms]
[OGL LOG][Proc: 0]nuTilda_matrix: call_update: 2.4 [ms]
[OGL LOG][Proc: 0]nuTilda_rhs: call_update: 0.915 [ms]
[OGL LOG][Preconditioner.H:121] Generate preconditioner BJ MaxBlockSize 1
[OGL LOG][Proc: 0]nuTilda: init_precond: 1.745 [ms]
[OGL LOG][StoppingCriterion.H:239] Creating stopping criterion with minIter 3 frequency 1
[OGL LOG][Proc: 0]nuTilda: generate_solver: 0.017 [ms]
[OGL LOG][Proc: 0]nuTilda: solve: 51.784 [ms]
[OGL LOG][Proc: 0]nuTilda: copy_x_back: 2.114 [ms]
[OGL LOG][lduLduBase.H:330] 
Statistics:
	Time per iteration: 25892 [mu s]
	Time per residual norm calculation: 1001.000000 [mu s]
	Time per iteration and DOF: 4.105191 [ns]
	Retrieve results bandwidth 2.976000 [GByte/s]
[OGL LOG][Proc: 0]nuTilda: solve_multi_gpu: 66.837 [ms]
BJcudaGKOBiCGStab:  Solving for nuTilda, Initial residual = 0.3618807351343224, Final residual = 0.01737621943895687, No Iterations 2
ExecutionTime = 167.44 s  ClockTime = 205 s

Time = 4

velocityDampingConstraint velocityDamping damped 22795 (0.36%) of cells, with max limit 300
[OGL LOG][Proc: 0]: global_index_init: 0.023 [ms]
[OGL LOG][Proc: 0]Ux_local_coeffs: call_update: 0 [ms]
[OGL LOG][Proc: 0]Ux_non_local_coeffs: call_update: 0 [ms]
[OGL LOG][Proc: 0]Ux: update_local_matrix_data: 37.374 [ms]
[OGL LOG][Proc: 0]Ux: update_non_local_matrix_data: 0.524 [ms]
[OGL LOG][Proc: 0]Ux_matrix: call_update: 2.114 [ms]
[OGL LOG][Proc: 0]Ux_rhs: call_update: 1.429 [ms]
[OGL LOG][Preconditioner.H:121] Generate preconditioner BJ MaxBlockSize 1
[OGL LOG][Proc: 0]Ux: init_precond: 1.453 [ms]
[OGL LOG][StoppingCriterion.H:239] Creating stopping criterion with minIter 8 frequency 1
[OGL LOG][Proc: 0]Ux: generate_solver: 0.014 [ms]
[OGL LOG][Proc: 0]Ux: solve: 75.024 [ms]
[OGL LOG][Proc: 0]Ux: copy_x_back: 2.286 [ms]
[OGL LOG][lduLduBase.H:330] 
Statistics:
	Time per iteration: 15004 [mu s]
	Time per residual norm calculation: 1643.000000 [mu s]
	Time per iteration and DOF: 2.378893 [ns]
	Retrieve results bandwidth 2.752000 [GByte/s]
[OGL LOG][Proc: 0]Ux: solve_multi_gpu: 86.583 [ms]
BJcudaGKOBiCGStab:  Solving for Ux, Initial residual = 0.3886977487247342, Final residual = 0.01212447706173376, No Iterations 5
[OGL LOG][Proc: 0]: global_index_init: 0.014 [ms]
[OGL LOG][Proc: 0]Uy_local_coeffs: call_update: 0 [ms]
[OGL LOG][Proc: 0]Uy_non_local_coeffs: call_update: 0 [ms]
[OGL LOG][Proc: 0]Uy: update_local_matrix_data: 34.586 [ms]
[OGL LOG][Proc: 0]Uy: update_non_local_matrix_data: 0.437 [ms]
[OGL LOG][Proc: 0]Uy_matrix: call_update: 2.048 [ms]
[OGL LOG][Proc: 0]Uy_rhs: call_update: 1.33 [ms]
[OGL LOG][Preconditioner.H:121] Generate preconditioner BJ MaxBlockSize 1
[OGL LOG][Proc: 0]Uy: init_precond: 1.712 [ms]
[OGL LOG][StoppingCriterion.H:239] Creating stopping criterion with minIter 8 frequency 1
[OGL LOG][Proc: 0]Uy: generate_solver: 0.019 [ms]
[OGL LOG][Proc: 0]Uy: solve: 69.877 [ms]
[OGL LOG][Proc: 0]Uy: copy_x_back: 2.267 [ms]
[OGL LOG][lduLduBase.H:330] 
Statistics:
	Time per iteration: 17469 [mu s]
	Time per residual norm calculation: 1799.000000 [mu s]
	Time per iteration and DOF: 2.769720 [ns]
	Retrieve results bandwidth 2.775000 [GByte/s]
[OGL LOG][Proc: 0]Uy: solve_multi_gpu: 83.057 [ms]
BJcudaGKOBiCGStab:  Solving for Uy, Initial residual = 0.3748498383673867, Final residual = 0.02078054078140007, No Iterations 4
[OGL LOG][Proc: 0]: global_index_init: 0.029 [ms]
[OGL LOG][Proc: 0]Uz_local_coeffs: call_update: 0 [ms]
[OGL LOG][Proc: 0]Uz_non_local_coeffs: call_update: 0 [ms]
[OGL LOG][Proc: 0]Uz: update_local_matrix_data: 34.699 [ms]
[OGL LOG][Proc: 0]Uz: update_non_local_matrix_data: 0.434 [ms]
[OGL LOG][Proc: 0]Uz_matrix: call_update: 2.812 [ms]
[OGL LOG][Proc: 0]Uz_rhs: call_update: 0.8149999999999999 [ms]
[OGL LOG][Preconditioner.H:121] Generate preconditioner BJ MaxBlockSize 1
[OGL LOG][Proc: 0]Uz: init_precond: 1.371 [ms]
[OGL LOG][StoppingCriterion.H:239] Creating stopping criterion with minIter 10 frequency 1
[OGL LOG][Proc: 0]Uz: generate_solver: 0.015 [ms]
[OGL LOG][Proc: 0]Uz: solve: 82.28100000000001 [ms]
[OGL LOG][Proc: 0]Uz: copy_x_back: 2.229 [ms]
[OGL LOG][lduLduBase.H:330] 
Statistics:
	Time per iteration: 13713 [mu s]
	Time per residual norm calculation: 1409.000000 [mu s]
	Time per iteration and DOF: 2.174204 [ns]
	Retrieve results bandwidth 2.823000 [GByte/s]
[OGL LOG][Proc: 0]Uz: solve_multi_gpu: 94.178 [ms]
BJcudaGKOBiCGStab:  Solving for Uz, Initial residual = 0.4031885543424021, Final residual = 0.03666170683034402, No Iterations 6
[OGL LOG][Proc: 0]: global_index_init: 0.015 [ms]
[OGL LOG][Proc: 0]p_local_coeffs: call_update: 0 [ms]
[OGL LOG][Proc: 0]p_non_local_coeffs: call_update: 0 [ms]
[OGL LOG][Proc: 0]p: update_local_matrix_data: 26.746 [ms]
[OGL LOG][Proc: 0]p: update_non_local_matrix_data: 0.499 [ms]
[OGL LOG][Proc: 0]p_matrix: call_update: 2.401 [ms]
[OGL LOG][Proc: 0]p_rhs: call_update: 0.881 [ms]
[OGL LOG][Preconditioner.H:271] Generate preconditioner GISAI SparsityPower 1
[OGL LOG][Proc: 0]p: init_precond: 98.187 [ms]
[OGL LOG][StoppingCriterion.H:239] Creating stopping criterion with minIter 605 frequency 14
[OGL LOG][Proc: 0]p: generate_solver: 0.015 [ms]
[OGL LOG][Proc: 0]p: solve: 2900.447 [ms]
[OGL LOG][Proc: 0]p: copy_x_back: 2.285 [ms]
[OGL LOG][lduLduBase.H:330] 
Statistics:
	Time per iteration: 2874 [mu s]
	Time per residual norm calculation: 1276.000000 [mu s]
	Time per iteration and DOF: 0.455674 [ns]
	Retrieve results bandwidth 2.753000 [GByte/s]
[OGL LOG][Proc: 0]p: solve_multi_gpu: 3007.794 [ms]
GISAIcudaGKOCG:  Solving for p, Initial residual = 0.9999999868229522, Final residual = 0.9999999869072591, No Iterations 1009
time step continuity errors : sum local = 5.785096804437716, global = -0.003435261842899344, cumulative = -0.00909151707645184
[OGL LOG][Proc: 0]: global_index_init: 0.07199999999999999 [ms]
[OGL LOG][Proc: 0]nuTilda_local_coeffs: call_update: 0 [ms]
[OGL LOG][Proc: 0]nuTilda_non_local_coeffs: call_update: 0 [ms]
[OGL LOG][Proc: 0]nuTilda: update_local_matrix_data: 33.744 [ms]
[OGL LOG][Proc: 0]nuTilda: update_non_local_matrix_data: 0.499 [ms]
[OGL LOG][Proc: 0]nuTilda_matrix: call_update: 2.39 [ms]
[OGL LOG][Proc: 0]nuTilda_rhs: call_update: 0.911 [ms]
[OGL LOG][Preconditioner.H:121] Generate preconditioner BJ MaxBlockSize 1
[OGL LOG][Proc: 0]nuTilda: init_precond: 1.843 [ms]
[OGL LOG][StoppingCriterion.H:239] Creating stopping criterion with minIter 2 frequency 1
[OGL LOG][Proc: 0]nuTilda: generate_solver: 0.015 [ms]
[OGL LOG][Proc: 0]nuTilda: solve: 102.235 [ms]
[OGL LOG][Proc: 0]nuTilda: copy_x_back: 2.274 [ms]
[OGL LOG][lduLduBase.H:330] 
Statistics:
	Time per iteration: 14605 [mu s]
	Time per residual norm calculation: 1266.000000 [mu s]
	Time per iteration and DOF: 2.315631 [ns]
	Retrieve results bandwidth 2.767000 [GByte/s]
[OGL LOG][Proc: 0]nuTilda: solve_multi_gpu: 122.148 [ms]
BJcudaGKOBiCGStab:  Solving for nuTilda, Initial residual = 0.2036714457253675, Final residual = 0.01383157699962825, No Iterations 7
ExecutionTime = 173.95 s  ClockTime = 212 s

Time = 5

velocityDampingConstraint velocityDamping damped 17004 (0.27%) of cells, with max limit 300
[OGL LOG][Proc: 0]: global_index_init: 0.015 [ms]
[OGL LOG][Proc: 0]Ux_local_coeffs: call_update: 0 [ms]
[OGL LOG][Proc: 0]Ux_non_local_coeffs: call_update: 0 [ms]
[OGL LOG][Proc: 0]Ux: update_local_matrix_data: 34.84 [ms]
[OGL LOG][Proc: 0]Ux: update_non_local_matrix_data: 0.459 [ms]
[OGL LOG][Proc: 0]Ux_matrix: call_update: 2.343 [ms]
[OGL LOG][Proc: 0]Ux_rhs: call_update: 1.327 [ms]
[OGL LOG][Preconditioner.H:121] Generate preconditioner BJ MaxBlockSize 1
[OGL LOG][Proc: 0]Ux: init_precond: 1.708 [ms]
[OGL LOG][StoppingCriterion.H:239] Creating stopping criterion with minIter 6 frequency 1
[OGL LOG][Proc: 0]Ux: generate_solver: 0.015 [ms]
[OGL LOG][Proc: 0]Ux: solve: 74.997 [ms]
[OGL LOG][Proc: 0]Ux: copy_x_back: 2.209 [ms]
[OGL LOG][lduLduBase.H:330] 
Statistics:
	Time per iteration: 14999 [mu s]
	Time per residual norm calculation: 1287.000000 [mu s]
	Time per iteration and DOF: 2.378100 [ns]
	Retrieve results bandwidth 2.848000 [GByte/s]
[OGL LOG][Proc: 0]Ux: solve_multi_gpu: 87.018 [ms]
BJcudaGKOBiCGStab:  Solving for Ux, Initial residual = 0.3750415557940231, Final residual = 0.0360053601835162, No Iterations 5
[OGL LOG][Proc: 0]: global_index_init: 0.066 [ms]
[OGL LOG][Proc: 0]Uy_local_coeffs: call_update: 0 [ms]
[OGL LOG][Proc: 0]Uy_non_local_coeffs: call_update: 0 [ms]
[OGL LOG][Proc: 0]Uy: update_local_matrix_data: 35.759 [ms]
[OGL LOG][Proc: 0]Uy: update_non_local_matrix_data: 0.461 [ms]
[OGL LOG][Proc: 0]Uy_matrix: call_update: 1.976 [ms]
[OGL LOG][Proc: 0]Uy_rhs: call_update: 1.722 [ms]
[OGL LOG][Preconditioner.H:121] Generate preconditioner BJ MaxBlockSize 1
[OGL LOG][Proc: 0]Uy: init_precond: 1.668 [ms]
[OGL LOG][StoppingCriterion.H:239] Creating stopping criterion with minIter 5 frequency 1
[OGL LOG][Proc: 0]Uy: generate_solver: 0.014 [ms]
[OGL LOG][Proc: 0]Uy: solve: 85.54000000000001 [ms]
[OGL LOG][Proc: 0]Uy: copy_x_back: 2.388 [ms]
[OGL LOG][lduLduBase.H:330] 
Statistics:
	Time per iteration: 14256 [mu s]
	Time per residual norm calculation: 1468.000000 [mu s]
	Time per iteration and DOF: 2.260297 [ns]
	Retrieve results bandwidth 2.635000 [GByte/s]
[OGL LOG][Proc: 0]Uy: solve_multi_gpu: 97.42700000000001 [ms]
BJcudaGKOBiCGStab:  Solving for Uy, Initial residual = 0.3427484022916768, Final residual = 0.03044023839854149, No Iterations 6
[OGL LOG][Proc: 0]: global_index_init: 0.045 [ms]
[OGL LOG][Proc: 0]Uz_local_coeffs: call_update: 0 [ms]
[OGL LOG][Proc: 0]Uz_non_local_coeffs: call_update: 0 [ms]
[OGL LOG][Proc: 0]Uz: update_local_matrix_data: 35.688 [ms]
[OGL LOG][Proc: 0]Uz: update_non_local_matrix_data: 0.512 [ms]
[OGL LOG][Proc: 0]Uz_matrix: call_update: 2.338 [ms]
[OGL LOG][Proc: 0]Uz_rhs: call_update: 0.965 [ms]
[OGL LOG][Preconditioner.H:121] Generate preconditioner BJ MaxBlockSize 1
[OGL LOG][Proc: 0]Uz: init_precond: 1.862 [ms]
[OGL LOG][StoppingCriterion.H:239] Creating stopping criterion with minIter 7 frequency 1
[OGL LOG][Proc: 0]Uz: generate_solver: 0.015 [ms]
[OGL LOG][Proc: 0]Uz: solve: 82.96599999999999 [ms]
[OGL LOG][Proc: 0]Uz: copy_x_back: 2.271 [ms]
[OGL LOG][lduLduBase.H:330] 
Statistics:
	Time per iteration: 11852 [mu s]
	Time per residual norm calculation: 1427.000000 [mu s]
	Time per iteration and DOF: 1.879141 [ns]
	Retrieve results bandwidth 2.770000 [GByte/s]
[OGL LOG][Proc: 0]Uz: solve_multi_gpu: 94.598 [ms]
BJcudaGKOBiCGStab:  Solving for Uz, Initial residual = 0.3702743168424564, Final residual = 0.006807701636739909, No Iterations 7
[OGL LOG][Proc: 0]: global_index_init: 0.016 [ms]
[OGL LOG][Proc: 0]p_local_coeffs: call_update: 0 [ms]
[OGL LOG][Proc: 0]p_non_local_coeffs: call_update: 0 [ms]
[OGL LOG][Proc: 0]p: update_local_matrix_data: 26.67 [ms]
[OGL LOG][Proc: 0]p: update_non_local_matrix_data: 0.484 [ms]
[OGL LOG][Proc: 0]p_matrix: call_update: 2.408 [ms]
[OGL LOG][Proc: 0]p_rhs: call_update: 0.828 [ms]
[OGL LOG][Preconditioner.H:271] Generate preconditioner GISAI SparsityPower 1
[OGL LOG][Proc: 0]p: init_precond: 97.31999999999999 [ms]
[OGL LOG][StoppingCriterion.H:239] Creating stopping criterion with minIter 605 frequency 14
[OGL LOG][Proc: 0]p: generate_solver: 0.016 [ms]
[OGL LOG][Proc: 0]p: solve: 2917.46 [ms]
[OGL LOG][Proc: 0]p: copy_x_back: 2.267 [ms]
[OGL LOG][lduLduBase.H:330] 
Statistics:
	Time per iteration: 2891 [mu s]
	Time per residual norm calculation: 1267.000000 [mu s]
	Time per iteration and DOF: 0.458370 [ns]
	Retrieve results bandwidth 2.775000 [GByte/s]
[OGL LOG][Proc: 0]p: solve_multi_gpu: 3023.426 [ms]
GISAIcudaGKOCG:  Solving for p, Initial residual = 0.999999996494264, Final residual = 0.9999999964541075, No Iterations 1009
time step continuity errors : sum local = 24.75819620974395, global = -0.003964599840176373, cumulative = -0.01305611691662821
[OGL LOG][Proc: 0]: global_index_init: 1.315 [ms]
[OGL LOG][Proc: 0]nuTilda_local_coeffs: call_update: 0 [ms]
[OGL LOG][Proc: 0]nuTilda_non_local_coeffs: call_update: 0 [ms]
[OGL LOG][Proc: 0]nuTilda: update_local_matrix_data: 34.717 [ms]
[OGL LOG][Proc: 0]nuTilda: update_non_local_matrix_data: 0.414 [ms]
[OGL LOG][Proc: 0]nuTilda_matrix: call_update: 2.417 [ms]
[OGL LOG][Proc: 0]nuTilda_rhs: call_update: 0.923 [ms]
[OGL LOG][Preconditioner.H:121] Generate preconditioner BJ MaxBlockSize 1
[OGL LOG][Proc: 0]nuTilda: init_precond: 1.858 [ms]
[OGL LOG][StoppingCriterion.H:239] Creating stopping criterion with minIter 9 frequency 1
[OGL LOG][Proc: 0]nuTilda: generate_solver: 0.015 [ms]
[OGL LOG][Proc: 0]nuTilda: solve: 96.015 [ms]
[OGL LOG][Proc: 0]nuTilda: copy_x_back: 2.063 [ms]
[OGL LOG][lduLduBase.H:330] 
Statistics:
	Time per iteration: 12001 [mu s]
	Time per residual norm calculation: 994.000000 [mu s]
	Time per iteration and DOF: 1.902765 [ns]
	Retrieve results bandwidth 3.050000 [GByte/s]
[OGL LOG][Proc: 0]nuTilda: solve_multi_gpu: 109.508 [ms]
BJcudaGKOBiCGStab:  Solving for nuTilda, Initial residual = 0.2218168897503087, Final residual = 0.01450593255113715, No Iterations 8
ExecutionTime = 180.5 s  ClockTime = 218 s

Time = 6

velocityDampingConstraint velocityDamping damped 32886 (0.52%) of cells, with max limit 300
[OGL LOG][Proc: 0]: global_index_init: 0.023 [ms]
[OGL LOG][Proc: 0]Ux_local_coeffs: call_update: 0 [ms]
[OGL LOG][Proc: 0]Ux_non_local_coeffs: call_update: 0 [ms]
[OGL LOG][Proc: 0]Ux: update_local_matrix_data: 34.977 [ms]
[OGL LOG][Proc: 0]Ux: update_non_local_matrix_data: 0.456 [ms]
[OGL LOG][Proc: 0]Ux_matrix: call_update: 2.265 [ms]
[OGL LOG][Proc: 0]Ux_rhs: call_update: 1.572 [ms]
[OGL LOG][Preconditioner.H:121] Generate preconditioner BJ MaxBlockSize 1
[OGL LOG][Proc: 0]Ux: init_precond: 1.47 [ms]
[OGL LOG][StoppingCriterion.H:239] Creating stopping criterion with minIter 6 frequency 1
[OGL LOG][Proc: 0]Ux: generate_solver: 0.014 [ms]
[OGL LOG][Proc: 0]Ux: solve: 67.45 [ms]
[OGL LOG][Proc: 0]Ux: copy_x_back: 2.183 [ms]
[OGL LOG][lduLduBase.H:330] 
Statistics:
	Time per iteration: 16862 [mu s]
	Time per residual norm calculation: 1260.000000 [mu s]
	Time per iteration and DOF: 2.673480 [ns]
	Retrieve results bandwidth 2.882000 [GByte/s]
[OGL LOG][Proc: 0]Ux: solve_multi_gpu: 76.864 [ms]
BJcudaGKOBiCGStab:  Solving for Ux, Initial residual = 0.431187229239961, Final residual = 0.01600583947234074, No Iterations 4
[OGL LOG][Proc: 0]: global_index_init: 0.046 [ms]
[OGL LOG][Proc: 0]Uy_local_coeffs: call_update: 0 [ms]
[OGL LOG][Proc: 0]Uy_non_local_coeffs: call_update: 0 [ms]
[OGL LOG][Proc: 0]Uy: update_local_matrix_data: 34.653 [ms]
[OGL LOG][Proc: 0]Uy: update_non_local_matrix_data: 0.436 [ms]
[OGL LOG][Proc: 0]Uy_matrix: call_update: 2.538 [ms]
[OGL LOG][Proc: 0]Uy_rhs: call_update: 0.881 [ms]
[OGL LOG][Preconditioner.H:121] Generate preconditioner BJ MaxBlockSize 1
[OGL LOG][Proc: 0]Uy: init_precond: 1.37 [ms]
[OGL LOG][StoppingCriterion.H:239] Creating stopping criterion with minIter 7 frequency 1
[OGL LOG][Proc: 0]Uy: generate_solver: 0.015 [ms]
[OGL LOG][Proc: 0]Uy: solve: 66.96299999999999 [ms]
[OGL LOG][Proc: 0]Uy: copy_x_back: 2.362 [ms]
[OGL LOG][lduLduBase.H:330] 
Statistics:
	Time per iteration: 16740 [mu s]
	Time per residual norm calculation: 1818.000000 [mu s]
	Time per iteration and DOF: 2.654137 [ns]
	Retrieve results bandwidth 2.664000 [GByte/s]
[OGL LOG][Proc: 0]Uy: solve_multi_gpu: 79.78400000000001 [ms]
BJcudaGKOBiCGStab:  Solving for Uy, Initial residual = 0.4146972697480267, Final residual = 0.01183568017982708, No Iterations 4
[OGL LOG][Proc: 0]: global_index_init: 0.016 [ms]
[OGL LOG][Proc: 0]Uz_local_coeffs: call_update: 0 [ms]
[OGL LOG][Proc: 0]Uz_non_local_coeffs: call_update: 0 [ms]
[OGL LOG][Proc: 0]Uz: update_local_matrix_data: 35.524 [ms]
[OGL LOG][Proc: 0]Uz: update_non_local_matrix_data: 0.453 [ms]
[OGL LOG][Proc: 0]Uz_matrix: call_update: 2.401 [ms]
[OGL LOG][Proc: 0]Uz_rhs: call_update: 1.076 [ms]
[OGL LOG][Preconditioner.H:121] Generate preconditioner BJ MaxBlockSize 1
[OGL LOG][Proc: 0]Uz: init_precond: 1.395 [ms]
[OGL LOG][StoppingCriterion.H:239] Creating stopping criterion with minIter 8 frequency 1
[OGL LOG][Proc: 0]Uz: generate_solver: 0.014 [ms]
[OGL LOG][Proc: 0]Uz: solve: 68.27200000000001 [ms]
[OGL LOG][Proc: 0]Uz: copy_x_back: 2.23 [ms]
[OGL LOG][lduLduBase.H:330] 
Statistics:
	Time per iteration: 17068 [mu s]
	Time per residual norm calculation: 1612.000000 [mu s]
	Time per iteration and DOF: 2.706141 [ns]
	Retrieve results bandwidth 2.821000 [GByte/s]
[OGL LOG][Proc: 0]Uz: solve_multi_gpu: 79.898 [ms]
BJcudaGKOBiCGStab:  Solving for Uz, Initial residual = 0.4174983820190166, Final residual = 0.01739092553031922, No Iterations 4
[OGL LOG][Proc: 0]: global_index_init: 0.153 [ms]
[OGL LOG][Proc: 0]p_local_coeffs: call_update: 0 [ms]
[OGL LOG][Proc: 0]p_non_local_coeffs: call_update: 0 [ms]
[OGL LOG][Proc: 0]p: update_local_matrix_data: 27.205 [ms]
[OGL LOG][Proc: 0]p: update_non_local_matrix_data: 0.485 [ms]
[OGL LOG][Proc: 0]p_matrix: call_update: 2.351 [ms]
[OGL LOG][Proc: 0]p_rhs: call_update: 1.041 [ms]
[OGL LOG][Preconditioner.H:271] Generate preconditioner GISAI SparsityPower 1
[OGL LOG][Proc: 0]p: init_precond: 100.426 [ms]
[OGL LOG][StoppingCriterion.H:239] Creating stopping criterion with minIter 605 frequency 14
[OGL LOG][Proc: 0]p: generate_solver: 0.015 [ms]
[OGL LOG][Proc: 0]p: solve: 2915.125 [ms]
[OGL LOG][Proc: 0]p: copy_x_back: 2.186 [ms]
[OGL LOG][lduLduBase.H:330] 
Statistics:
	Time per iteration: 2889 [mu s]
	Time per residual norm calculation: 1411.000000 [mu s]
	Time per iteration and DOF: 0.458053 [ns]
	Retrieve results bandwidth 2.878000 [GByte/s]
[OGL LOG][Proc: 0]p: solve_multi_gpu: 3022.644 [ms]
GISAIcudaGKOCG:  Solving for p, Initial residual = 0.9999999983893565, Final residual = 0.9999999988180674, No Iterations 1009
time step continuity errors : sum local = 75.25279936361036, global = -0.004466609222499712, cumulative = -0.01752272613912793
[OGL LOG][Proc: 0]: global_index_init: 0.022 [ms]
[OGL LOG][Proc: 0]nuTilda_local_coeffs: call_update: 0 [ms]
[OGL LOG][Proc: 0]nuTilda_non_local_coeffs: call_update: 0 [ms]
[OGL LOG][Proc: 0]nuTilda: update_local_matrix_data: 34.006 [ms]
[OGL LOG][Proc: 0]nuTilda: update_non_local_matrix_data: 0.466 [ms]
[OGL LOG][Proc: 0]nuTilda_matrix: call_update: 2.37 [ms]
[OGL LOG][Proc: 0]nuTilda_rhs: call_update: 0.991 [ms]
[OGL LOG][Preconditioner.H:121] Generate preconditioner BJ MaxBlockSize 1
[OGL LOG][Proc: 0]nuTilda: init_precond: 1.839 [ms]
[OGL LOG][StoppingCriterion.H:239] Creating stopping criterion with minIter 9 frequency 1
[OGL LOG][Proc: 0]nuTilda: generate_solver: 0.015 [ms]
[OGL LOG][Proc: 0]nuTilda: solve: 98.904 [ms]
[OGL LOG][Proc: 0]nuTilda: copy_x_back: 2.306 [ms]
[OGL LOG][lduLduBase.H:330] 
Statistics:
	Time per iteration: 12363 [mu s]
	Time per residual norm calculation: 1437.000000 [mu s]
	Time per iteration and DOF: 1.960161 [ns]
	Retrieve results bandwidth 2.728000 [GByte/s]
[OGL LOG][Proc: 0]nuTilda: solve_multi_gpu: 118.42 [ms]
BJcudaGKOBiCGStab:  Solving for nuTilda, Initial residual = 0.3789250807330997, Final residual = 0.0312406251543187, No Iterations 8
ExecutionTime = 186.99 s  ClockTime = 225 s

Time = 7

velocityDampingConstraint velocityDamping damped 39915 (0.63%) of cells, with max limit 300
[OGL LOG][Proc: 0]: global_index_init: 0.017 [ms]
[OGL LOG][Proc: 0]Ux_local_coeffs: call_update: 0 [ms]
[OGL LOG][Proc: 0]Ux_non_local_coeffs: call_update: 0 [ms]
[OGL LOG][Proc: 0]Ux: update_local_matrix_data: 35.021 [ms]
[OGL LOG][Proc: 0]Ux: update_non_local_matrix_data: 0.457 [ms]
[OGL LOG][Proc: 0]Ux_matrix: call_update: 2.973 [ms]
[OGL LOG][Proc: 0]Ux_rhs: call_update: 0.867 [ms]
[OGL LOG][Preconditioner.H:121] Generate preconditioner BJ MaxBlockSize 1
[OGL LOG][Proc: 0]Ux: init_precond: 1.469 [ms]
[OGL LOG][StoppingCriterion.H:239] Creating stopping criterion with minIter 4 frequency 1
[OGL LOG][Proc: 0]Ux: generate_solver: 0.014 [ms]
[OGL LOG][Proc: 0]Ux: solve: 66.185 [ms]
[OGL LOG][Proc: 0]Ux: copy_x_back: 2.313 [ms]
[OGL LOG][lduLduBase.H:330] 
Statistics:
	Time per iteration: 22061 [mu s]
	Time per residual norm calculation: 1609.000000 [mu s]
	Time per iteration and DOF: 3.497784 [ns]
	Retrieve results bandwidth 2.720000 [GByte/s]
[OGL LOG][Proc: 0]Ux: solve_multi_gpu: 78.84699999999999 [ms]
BJcudaGKOBiCGStab:  Solving for Ux, Initial residual = 0.547904317926397, Final residual = 0.01963026419980629, No Iterations 3
[OGL LOG][Proc: 0]: global_index_init: 0.024 [ms]
[OGL LOG][Proc: 0]Uy_local_coeffs: call_update: 0 [ms]
[OGL LOG][Proc: 0]Uy_non_local_coeffs: call_update: 0 [ms]
[OGL LOG][Proc: 0]Uy: update_local_matrix_data: 36.001 [ms]
[OGL LOG][Proc: 0]Uy: update_non_local_matrix_data: 0.475 [ms]
[OGL LOG][Proc: 0]Uy_matrix: call_update: 2.379 [ms]
[OGL LOG][Proc: 0]Uy_rhs: call_update: 1.077 [ms]
[OGL LOG][Preconditioner.H:121] Generate preconditioner BJ MaxBlockSize 1
[OGL LOG][Proc: 0]Uy: init_precond: 1.31 [ms]
[OGL LOG][StoppingCriterion.H:239] Creating stopping criterion with minIter 4 frequency 1
[OGL LOG][Proc: 0]Uy: generate_solver: 0.015 [ms]
[OGL LOG][Proc: 0]Uy: solve: 98.14700000000001 [ms]
[OGL LOG][Proc: 0]Uy: copy_x_back: 2.384 [ms]
[OGL LOG][lduLduBase.H:330] 
Statistics:
	Time per iteration: 32715 [mu s]
	Time per residual norm calculation: 1626.000000 [mu s]
	Time per iteration and DOF: 5.186982 [ns]
	Retrieve results bandwidth 2.639000 [GByte/s]
[OGL LOG][Proc: 0]Uy: solve_multi_gpu: 107.828 [ms]
BJcudaGKOBiCGStab:  Solving for Uy, Initial residual = 0.5494211636525825, Final residual = 0.02047887179918588, No Iterations 3
[OGL LOG][Proc: 0]: global_index_init: 0.041 [ms]
[OGL LOG][Proc: 0]Uz_local_coeffs: call_update: 0 [ms]
[OGL LOG][Proc: 0]Uz_non_local_coeffs: call_update: 0 [ms]
[OGL LOG][Proc: 0]Uz: update_local_matrix_data: 35.48 [ms]
[OGL LOG][Proc: 0]Uz: update_non_local_matrix_data: 0.475 [ms]
[OGL LOG][Proc: 0]Uz_matrix: call_update: 2.862 [ms]
[OGL LOG][Proc: 0]Uz_rhs: call_update: 0.774 [ms]
[OGL LOG][Preconditioner.H:121] Generate preconditioner BJ MaxBlockSize 1
[OGL LOG][Proc: 0]Uz: init_precond: 1.303 [ms]
[OGL LOG][StoppingCriterion.H:239] Creating stopping criterion with minIter 5 frequency 1
[OGL LOG][Proc: 0]Uz: generate_solver: 0.015 [ms]
[OGL LOG][Proc: 0]Uz: solve: 65.703 [ms]
[OGL LOG][Proc: 0]Uz: copy_x_back: 2.182 [ms]
[OGL LOG][lduLduBase.H:330] 
Statistics:
	Time per iteration: 21901 [mu s]
	Time per residual norm calculation: 1612.000000 [mu s]
	Time per iteration and DOF: 3.472416 [ns]
	Retrieve results bandwidth 2.883000 [GByte/s]
[OGL LOG][Proc: 0]Uz: solve_multi_gpu: 76.866 [ms]
BJcudaGKOBiCGStab:  Solving for Uz, Initial residual = 0.5468049056774532, Final residual = 0.02038813443631396, No Iterations 3
[OGL LOG][Proc: 0]: global_index_init: 0.148 [ms]
[OGL LOG][Proc: 0]p_local_coeffs: call_update: 0 [ms]
[OGL LOG][Proc: 0]p_non_local_coeffs: call_update: 0 [ms]
[OGL LOG][Proc: 0]p: update_local_matrix_data: 26.307 [ms]
[OGL LOG][Proc: 0]p: update_non_local_matrix_data: 0.464 [ms]
[OGL LOG][Proc: 0]p_matrix: call_update: 2.983 [ms]
[OGL LOG][Proc: 0]p_rhs: call_update: 0.73 [ms]
[OGL LOG][Preconditioner.H:271] Generate preconditioner GISAI SparsityPower 1
[OGL LOG][Proc: 0]p: init_precond: 121.482 [ms]
[OGL LOG][StoppingCriterion.H:239] Creating stopping criterion with minIter 605 frequency 14
[OGL LOG][Proc: 0]p: generate_solver: 0.014 [ms]
[OGL LOG][Proc: 0]p: solve: 2905.503 [ms]
[OGL LOG][Proc: 0]p: copy_x_back: 2.307 [ms]
[OGL LOG][lduLduBase.H:330] 
Statistics:
	Time per iteration: 2879 [mu s]
	Time per residual norm calculation: 1268.000000 [mu s]
	Time per iteration and DOF: 0.456467 [ns]
	Retrieve results bandwidth 2.727000 [GByte/s]
[OGL LOG][Proc: 0]p: solve_multi_gpu: 3037.563 [ms]
GISAIcudaGKOCG:  Solving for p, Initial residual = 0.9999999978268186, Final residual = 0.9999999978099561, No Iterations 1009
time step continuity errors : sum local = 192.59496734336, global = -0.004952772431606628, cumulative = -0.02247549857073455
[OGL LOG][Proc: 0]: global_index_init: 0.872 [ms]
[OGL LOG][Proc: 0]nuTilda_local_coeffs: call_update: 0 [ms]
[OGL LOG][Proc: 0]nuTilda_non_local_coeffs: call_update: 0 [ms]
[OGL LOG][Proc: 0]nuTilda: update_local_matrix_data: 39.357 [ms]
[OGL LOG][Proc: 0]nuTilda: update_non_local_matrix_data: 0.439 [ms]
[OGL LOG][Proc: 0]nuTilda_matrix: call_update: 2.405 [ms]
[OGL LOG][Proc: 0]nuTilda_rhs: call_update: 0.894 [ms]
[OGL LOG][Preconditioner.H:121] Generate preconditioner BJ MaxBlockSize 1
[OGL LOG][Proc: 0]nuTilda: init_precond: 1.825 [ms]
[OGL LOG][StoppingCriterion.H:239] Creating stopping criterion with minIter 9 frequency 1
[OGL LOG][Proc: 0]nuTilda: generate_solver: 0.026 [ms]
[OGL LOG][Proc: 0]nuTilda: solve: 105.469 [ms]
[OGL LOG][Proc: 0]nuTilda: copy_x_back: 2.292 [ms]
[OGL LOG][lduLduBase.H:330] 
Statistics:
	Time per iteration: 11718 [mu s]
	Time per residual norm calculation: 1438.000000 [mu s]
	Time per iteration and DOF: 1.857896 [ns]
	Retrieve results bandwidth 2.745000 [GByte/s]
[OGL LOG][Proc: 0]nuTilda: solve_multi_gpu: 116.938 [ms]
BJcudaGKOBiCGStab:  Solving for nuTilda, Initial residual = 0.2371676125689933, Final residual = 0.01345293030362026, No Iterations 9
ExecutionTime = 193.5 s  ClockTime = 231 s

Time = 8

velocityDampingConstraint velocityDamping damped 42945 (0.68%) of cells, with max limit 300
[OGL LOG][Proc: 0]: global_index_init: 0.014 [ms]
[OGL LOG][Proc: 0]Ux_local_coeffs: call_update: 0 [ms]
[OGL LOG][Proc: 0]Ux_non_local_coeffs: call_update: 0 [ms]
[OGL LOG][Proc: 0]Ux: update_local_matrix_data: 34.964 [ms]
[OGL LOG][Proc: 0]Ux: update_non_local_matrix_data: 0.449 [ms]
[OGL LOG][Proc: 0]Ux_matrix: call_update: 2.611 [ms]
[OGL LOG][Proc: 0]Ux_rhs: call_update: 0.96 [ms]
[OGL LOG][Preconditioner.H:121] Generate preconditioner BJ MaxBlockSize 1
[OGL LOG][Proc: 0]Ux: init_precond: 1.389 [ms]
[OGL LOG][StoppingCriterion.H:239] Creating stopping criterion with minIter 4 frequency 1
[OGL LOG][Proc: 0]Ux: generate_solver: 0.015 [ms]
[OGL LOG][Proc: 0]Ux: solve: 62.544 [ms]
[OGL LOG][Proc: 0]Ux: copy_x_back: 2.363 [ms]
[OGL LOG][lduLduBase.H:330] 
Statistics:
	Time per iteration: 20848 [mu s]
	Time per residual norm calculation: 1819.000000 [mu s]
	Time per iteration and DOF: 3.305462 [ns]
	Retrieve results bandwidth 2.663000 [GByte/s]
[OGL LOG][Proc: 0]Ux: solve_multi_gpu: 75.61 [ms]
BJcudaGKOBiCGStab:  Solving for Ux, Initial residual = 0.5249073261891301, Final residual = 0.05106329797935234, No Iterations 3
[OGL LOG][Proc: 0]: global_index_init: 0.023 [ms]
[OGL LOG][Proc: 0]Uy_local_coeffs: call_update: 0 [ms]
[OGL LOG][Proc: 0]Uy_non_local_coeffs: call_update: 0 [ms]
[OGL LOG][Proc: 0]Uy: update_local_matrix_data: 34.11 [ms]
[OGL LOG][Proc: 0]Uy: update_non_local_matrix_data: 0.442 [ms]
[OGL LOG][Proc: 0]Uy_matrix: call_update: 2.244 [ms]
[OGL LOG][Proc: 0]Uy_rhs: call_update: 1.22 [ms]
[OGL LOG][Preconditioner.H:121] Generate preconditioner BJ MaxBlockSize 1
[OGL LOG][Proc: 0]Uy: init_precond: 1.755 [ms]
[OGL LOG][StoppingCriterion.H:239] Creating stopping criterion with minIter 4 frequency 1
[OGL LOG][Proc: 0]Uy: generate_solver: 0.015 [ms]
[OGL LOG][Proc: 0]Uy: solve: 61.562 [ms]
[OGL LOG][Proc: 0]Uy: copy_x_back: 2.206 [ms]
[OGL LOG][lduLduBase.H:330] 
Statistics:
	Time per iteration: 20520 [mu s]
	Time per residual norm calculation: 1813.000000 [mu s]
	Time per iteration and DOF: 3.253458 [ns]
	Retrieve results bandwidth 2.852000 [GByte/s]
[OGL LOG][Proc: 0]Uy: solve_multi_gpu: 73.836 [ms]
BJcudaGKOBiCGStab:  Solving for Uy, Initial residual = 0.5203254078537807, Final residual = 0.03330585175852722, No Iterations 3
[OGL LOG][Proc: 0]: global_index_init: 0.038 [ms]
[OGL LOG][Proc: 0]Uz_local_coeffs: call_update: 0 [ms]
[OGL LOG][Proc: 0]Uz_non_local_coeffs: call_update: 0 [ms]
[OGL LOG][Proc: 0]Uz: update_local_matrix_data: 35.064 [ms]
[OGL LOG][Proc: 0]Uz: update_non_local_matrix_data: 0.432 [ms]
[OGL LOG][Proc: 0]Uz_matrix: call_update: 2.57 [ms]
[OGL LOG][Proc: 0]Uz_rhs: call_update: 1.019 [ms]
[OGL LOG][Preconditioner.H:121] Generate preconditioner BJ MaxBlockSize 1
[OGL LOG][Proc: 0]Uz: init_precond: 1.416 [ms]
[OGL LOG][StoppingCriterion.H:239] Creating stopping criterion with minIter 4 frequency 1
[OGL LOG][Proc: 0]Uz: generate_solver: 0.015 [ms]
[OGL LOG][Proc: 0]Uz: solve: 93.001 [ms]
[OGL LOG][Proc: 0]Uz: copy_x_back: 2.321 [ms]
[OGL LOG][lduLduBase.H:330] 
Statistics:
	Time per iteration: 23250 [mu s]
	Time per residual norm calculation: 1693.000000 [mu s]
	Time per iteration and DOF: 3.686301 [ns]
	Retrieve results bandwidth 2.711000 [GByte/s]
[OGL LOG][Proc: 0]Uz: solve_multi_gpu: 106.571 [ms]
BJcudaGKOBiCGStab:  Solving for Uz, Initial residual = 0.5001375622853346, Final residual = 0.02576020258720913, No Iterations 4
[OGL LOG][Proc: 0]: global_index_init: 0.017 [ms]
[OGL LOG][Proc: 0]p_local_coeffs: call_update: 0 [ms]
[OGL LOG][Proc: 0]p_non_local_coeffs: call_update: 0 [ms]
[OGL LOG][Proc: 0]p: update_local_matrix_data: 26.583 [ms]
[OGL LOG][Proc: 0]p: update_non_local_matrix_data: 0.447 [ms]
[OGL LOG][Proc: 0]p_matrix: call_update: 1.631 [ms]
[OGL LOG][Proc: 0]p_rhs: call_update: 2.213 [ms]
[OGL LOG][Preconditioner.H:271] Generate preconditioner GISAI SparsityPower 1
[OGL LOG][Proc: 0]p: init_precond: 110.049 [ms]
[OGL LOG][StoppingCriterion.H:239] Creating stopping criterion with minIter 605 frequency 14
[OGL LOG][Proc: 0]p: generate_solver: 0.017 [ms]
[OGL LOG][Proc: 0]p: solve: 2940.807 [ms]
[OGL LOG][Proc: 0]p: copy_x_back: 2.401 [ms]
[OGL LOG][lduLduBase.H:330] 
Statistics:
	Time per iteration: 2914 [mu s]
	Time per residual norm calculation: 1264.000000 [mu s]
	Time per iteration and DOF: 0.462016 [ns]
	Retrieve results bandwidth 2.620000 [GByte/s]
[OGL LOG][Proc: 0]p: solve_multi_gpu: 3060.576 [ms]
GISAIcudaGKOCG:  Solving for p, Initial residual = 0.9999999992927333, Final residual = 0.9999999992908977, No Iterations 1009
time step continuity errors : sum local = 523.6156739602026, global = -0.00496663398775039, cumulative = -0.02744213255848494
[OGL LOG][Proc: 0]: global_index_init: 0.018 [ms]
[OGL LOG][Proc: 0]nuTilda_local_coeffs: call_update: 0 [ms]
[OGL LOG][Proc: 0]nuTilda_non_local_coeffs: call_update: 0 [ms]
[OGL LOG][Proc: 0]nuTilda: update_local_matrix_data: 34.101 [ms]
[OGL LOG][Proc: 0]nuTilda: update_non_local_matrix_data: 0.489 [ms]
[OGL LOG][Proc: 0]nuTilda_matrix: call_update: 2.102 [ms]
[OGL LOG][Proc: 0]nuTilda_rhs: call_update: 1.257 [ms]
[OGL LOG][Preconditioner.H:121] Generate preconditioner BJ MaxBlockSize 1
[OGL LOG][Proc: 0]nuTilda: init_precond: 1.884 [ms]
[OGL LOG][StoppingCriterion.H:239] Creating stopping criterion with minIter 10 frequency 1
[OGL LOG][Proc: 0]nuTilda: generate_solver: 0.015 [ms]
[OGL LOG][Proc: 0]nuTilda: solve: 82.937 [ms]
[OGL LOG][Proc: 0]nuTilda: copy_x_back: 2.238 [ms]
[OGL LOG][lduLduBase.H:330] 
Statistics:
	Time per iteration: 13822 [mu s]
	Time per residual norm calculation: 1267.000000 [mu s]
	Time per iteration and DOF: 2.191486 [ns]
	Retrieve results bandwidth 2.811000 [GByte/s]
[OGL LOG][Proc: 0]nuTilda: solve_multi_gpu: 99.489 [ms]
BJcudaGKOBiCGStab:  Solving for nuTilda, Initial residual = 0.3096096413098769, Final residual = 0.02839731275039878, No Iterations 6
ExecutionTime = 200 s  ClockTime = 238 s

Time = 9

velocityDampingConstraint velocityDamping damped 49102 (0.78%) of cells, with max limit 300
[OGL LOG][Proc: 0]: global_index_init: 0.023 [ms]
[OGL LOG][Proc: 0]Ux_local_coeffs: call_update: 0 [ms]
[OGL LOG][Proc: 0]Ux_non_local_coeffs: call_update: 0 [ms]
[OGL LOG][Proc: 0]Ux: update_local_matrix_data: 35.003 [ms]
[OGL LOG][Proc: 0]Ux: update_non_local_matrix_data: 0.459 [ms]
[OGL LOG][Proc: 0]Ux_matrix: call_update: 2.534 [ms]
[OGL LOG][Proc: 0]Ux_rhs: call_update: 0.975 [ms]
[OGL LOG][Preconditioner.H:121] Generate preconditioner BJ MaxBlockSize 1
[OGL LOG][Proc: 0]Ux: init_precond: 1.429 [ms]
[OGL LOG][StoppingCriterion.H:239] Creating stopping criterion with minIter 3 frequency 1
[OGL LOG][Proc: 0]Ux: generate_solver: 0.014 [ms]
[OGL LOG][Proc: 0]Ux: solve: 62.305 [ms]
[OGL LOG][Proc: 0]Ux: copy_x_back: 2.185 [ms]
[OGL LOG][lduLduBase.H:330] 
Statistics:
	Time per iteration: 20768 [mu s]
	Time per residual norm calculation: 1261.000000 [mu s]
	Time per iteration and DOF: 3.292778 [ns]
	Retrieve results bandwidth 2.880000 [GByte/s]
[OGL LOG][Proc: 0]Ux: solve_multi_gpu: 72.312 [ms]
BJcudaGKOBiCGStab:  Solving for Ux, Initial residual = 0.5917300472055624, Final residual = 0.04146777236880407, No Iterations 3
[OGL LOG][Proc: 0]: global_index_init: 0.052 [ms]
[OGL LOG][Proc: 0]Uy_local_coeffs: call_update: 0 [ms]
[OGL LOG][Proc: 0]Uy_non_local_coeffs: call_update: 0 [ms]
[OGL LOG][Proc: 0]Uy: update_local_matrix_data: 34.47 [ms]
[OGL LOG][Proc: 0]Uy: update_non_local_matrix_data: 0.441 [ms]
[OGL LOG][Proc: 0]Uy_matrix: call_update: 1.533 [ms]
[OGL LOG][Proc: 0]Uy_rhs: call_update: 2.158 [ms]
[OGL LOG][Preconditioner.H:121] Generate preconditioner BJ MaxBlockSize 1
[OGL LOG][Proc: 0]Uy: init_precond: 1.741 [ms]
[OGL LOG][StoppingCriterion.H:239] Creating stopping criterion with minIter 3 frequency 1
[OGL LOG][Proc: 0]Uy: generate_solver: 0.015 [ms]
[OGL LOG][Proc: 0]Uy: solve: 63.686 [ms]
[OGL LOG][Proc: 0]Uy: copy_x_back: 2.246 [ms]
[OGL LOG][lduLduBase.H:330] 
Statistics:
	Time per iteration: 21228 [mu s]
	Time per residual norm calculation: 1733.000000 [mu s]
	Time per iteration and DOF: 3.365711 [ns]
	Retrieve results bandwidth 2.801000 [GByte/s]
[OGL LOG][Proc: 0]Uy: solve_multi_gpu: 76.253 [ms]
BJcudaGKOBiCGStab:  Solving for Uy, Initial residual = 0.5751944804063468, Final residual = 0.04378657337167551, No Iterations 3
[OGL LOG][Proc: 0]: global_index_init: 0.039 [ms]
[OGL LOG][Proc: 0]Uz_local_coeffs: call_update: 0 [ms]
[OGL LOG][Proc: 0]Uz_non_local_coeffs: call_update: 0 [ms]
[OGL LOG][Proc: 0]Uz: update_local_matrix_data: 35.883 [ms]
[OGL LOG][Proc: 0]Uz: update_non_local_matrix_data: 0.453 [ms]
[OGL LOG][Proc: 0]Uz_matrix: call_update: 1.441 [ms]
[OGL LOG][Proc: 0]Uz_rhs: call_update: 2.323 [ms]
[OGL LOG][Preconditioner.H:121] Generate preconditioner BJ MaxBlockSize 1
[OGL LOG][Proc: 0]Uz: init_precond: 1.69 [ms]
[OGL LOG][StoppingCriterion.H:239] Creating stopping criterion with minIter 5 frequency 1
[OGL LOG][Proc: 0]Uz: generate_solver: 0.016 [ms]
[OGL LOG][Proc: 0]Uz: solve: 55.518 [ms]
[OGL LOG][Proc: 0]Uz: copy_x_back: 2.192 [ms]
[OGL LOG][lduLduBase.H:330] 
Statistics:
	Time per iteration: 18506 [mu s]
	Time per residual norm calculation: 1536.000000 [mu s]
	Time per iteration and DOF: 2.934137 [ns]
	Retrieve results bandwidth 2.870000 [GByte/s]
[OGL LOG][Proc: 0]Uz: solve_multi_gpu: 64.563 [ms]
BJcudaGKOBiCGStab:  Solving for Uz, Initial residual = 0.5847755731925872, Final residual = 0.04156617932944055, No Iterations 3
[OGL LOG][Proc: 0]: global_index_init: 0.017 [ms]
[OGL LOG][Proc: 0]p_local_coeffs: call_update: 0 [ms]
[OGL LOG][Proc: 0]p_non_local_coeffs: call_update: 0 [ms]
[OGL LOG][Proc: 0]p: update_local_matrix_data: 26.989 [ms]
[OGL LOG][Proc: 0]p: update_non_local_matrix_data: 0.459 [ms]
[OGL LOG][Proc: 0]p_matrix: call_update: 2.201 [ms]
[OGL LOG][Proc: 0]p_rhs: call_update: 1.425 [ms]
[OGL LOG][Preconditioner.H:271] Generate preconditioner GISAI SparsityPower 1
[OGL LOG][Proc: 0]p: init_precond: 100.569 [ms]
[OGL LOG][StoppingCriterion.H:239] Creating stopping criterion with minIter 605 frequency 14
[OGL LOG][Proc: 0]p: generate_solver: 0.015 [ms]
[OGL LOG][Proc: 0]p: solve: 2993.826 [ms]
[OGL LOG][Proc: 0]p: copy_x_back: 2.39 [ms]
[OGL LOG][lduLduBase.H:330] 
Statistics:
	Time per iteration: 2967 [mu s]
	Time per residual norm calculation: 1265.000000 [mu s]
	Time per iteration and DOF: 0.470420 [ns]
	Retrieve results bandwidth 2.633000 [GByte/s]
[OGL LOG][Proc: 0]p: solve_multi_gpu: 3103.905 [ms]
GISAIcudaGKOCG:  Solving for p, Initial residual = 0.9999999994146959, Final residual = 0.9999999994163008, No Iterations 1009
time step continuity errors : sum local = 671.0869220080846, global = -0.005357109041601497, cumulative = -0.03279924160008644
[OGL LOG][Proc: 0]: global_index_init: 1.306 [ms]
[OGL LOG][Proc: 0]nuTilda_local_coeffs: call_update: 0 [ms]
[OGL LOG][Proc: 0]nuTilda_non_local_coeffs: call_update: 0 [ms]
[OGL LOG][Proc: 0]nuTilda: update_local_matrix_data: 33.555 [ms]
[OGL LOG][Proc: 0]nuTilda: update_non_local_matrix_data: 0.443 [ms]
[OGL LOG][Proc: 0]nuTilda_matrix: call_update: 2.385 [ms]
[OGL LOG][Proc: 0]nuTilda_rhs: call_update: 1.055 [ms]
[OGL LOG][Preconditioner.H:121] Generate preconditioner BJ MaxBlockSize 1
[OGL LOG][Proc: 0]nuTilda: init_precond: 1.849 [ms]
[OGL LOG][StoppingCriterion.H:239] Creating stopping criterion with minIter 7 frequency 1
[OGL LOG][Proc: 0]nuTilda: generate_solver: 0.015 [ms]
[OGL LOG][Proc: 0]nuTilda: solve: 81.964 [ms]
[OGL LOG][Proc: 0]nuTilda: copy_x_back: 2.199 [ms]
[OGL LOG][lduLduBase.H:330] 
Statistics:
	Time per iteration: 13660 [mu s]
	Time per residual norm calculation: 1424.000000 [mu s]
	Time per iteration and DOF: 2.165801 [ns]
	Retrieve results bandwidth 2.861000 [GByte/s]
[OGL LOG][Proc: 0]nuTilda: solve_multi_gpu: 101.826 [ms]
BJcudaGKOBiCGStab:  Solving for nuTilda, Initial residual = 0.2898190207131934, Final residual = 0.006615749472300647, No Iterations 6
ExecutionTime = 206.45 s  ClockTime = 244 s

Time = 10

velocityDampingConstraint velocityDamping damped 56830 (0.9%) of cells, with max limit 300
[OGL LOG][Proc: 0]: global_index_init: 0.023 [ms]
[OGL LOG][Proc: 0]Ux_local_coeffs: call_update: 0 [ms]
[OGL LOG][Proc: 0]Ux_non_local_coeffs: call_update: 0 [ms]
[OGL LOG][Proc: 0]Ux: update_local_matrix_data: 34.765 [ms]
[OGL LOG][Proc: 0]Ux: update_non_local_matrix_data: 0.507 [ms]
[OGL LOG][Proc: 0]Ux_matrix: call_update: 2.65 [ms]
[OGL LOG][Proc: 0]Ux_rhs: call_update: 0.918 [ms]
[OGL LOG][Preconditioner.H:121] Generate preconditioner BJ MaxBlockSize 1
[OGL LOG][Proc: 0]Ux: init_precond: 1.47 [ms]
[OGL LOG][StoppingCriterion.H:239] Creating stopping criterion with minIter 3 frequency 1
[OGL LOG][Proc: 0]Ux: generate_solver: 0.014 [ms]
[OGL LOG][Proc: 0]Ux: solve: 53.103 [ms]
[OGL LOG][Proc: 0]Ux: copy_x_back: 2.263 [ms]
[OGL LOG][lduLduBase.H:330] 
Statistics:
	Time per iteration: 26551 [mu s]
	Time per residual norm calculation: 1264.000000 [mu s]
	Time per iteration and DOF: 4.209676 [ns]
	Retrieve results bandwidth 2.780000 [GByte/s]
[OGL LOG][Proc: 0]Ux: solve_multi_gpu: 63.977 [ms]
BJcudaGKOBiCGStab:  Solving for Ux, Initial residual = 0.4448552986215927, Final residual = 0.03478092168117955, No Iterations 2
[OGL LOG][Proc: 0]: global_index_init: 0.063 [ms]
[OGL LOG][Proc: 0]Uy_local_coeffs: call_update: 0 [ms]
[OGL LOG][Proc: 0]Uy_non_local_coeffs: call_update: 0 [ms]
[OGL LOG][Proc: 0]Uy: update_local_matrix_data: 34.258 [ms]
[OGL LOG][Proc: 0]Uy: update_non_local_matrix_data: 0.432 [ms]
[OGL LOG][Proc: 0]Uy_matrix: call_update: 2.526 [ms]
[OGL LOG][Proc: 0]Uy_rhs: call_update: 1.105 [ms]
[OGL LOG][Preconditioner.H:121] Generate preconditioner BJ MaxBlockSize 1
[OGL LOG][Proc: 0]Uy: init_precond: 1.396 [ms]
[OGL LOG][StoppingCriterion.H:239] Creating stopping criterion with minIter 3 frequency 1
[OGL LOG][Proc: 0]Uy: generate_solver: 0.016 [ms]
[OGL LOG][Proc: 0]Uy: solve: 59.361 [ms]
[OGL LOG][Proc: 0]Uy: copy_x_back: 2.33 [ms]
[OGL LOG][lduLduBase.H:330] 
Statistics:
	Time per iteration: 29680 [mu s]
	Time per residual norm calculation: 1615.000000 [mu s]
	Time per iteration and DOF: 4.705781 [ns]
	Retrieve results bandwidth 2.700000 [GByte/s]
[OGL LOG][Proc: 0]Uy: solve_multi_gpu: 72.065 [ms]
BJcudaGKOBiCGStab:  Solving for Uy, Initial residual = 0.4652210016554573, Final residual = 0.02276363901318215, No Iterations 2
[OGL LOG][Proc: 0]: global_index_init: 0.015 [ms]
[OGL LOG][Proc: 0]Uz_local_coeffs: call_update: 0 [ms]
[OGL LOG][Proc: 0]Uz_non_local_coeffs: call_update: 0 [ms]
[OGL LOG][Proc: 0]Uz: update_local_matrix_data: 36.268 [ms]
[OGL LOG][Proc: 0]Uz: update_non_local_matrix_data: 0.449 [ms]
[OGL LOG][Proc: 0]Uz_matrix: call_update: 2.281 [ms]
[OGL LOG][Proc: 0]Uz_rhs: call_update: 1.063 [ms]
[OGL LOG][Preconditioner.H:121] Generate preconditioner BJ MaxBlockSize 1
[OGL LOG][Proc: 0]Uz: init_precond: 1.362 [ms]
[OGL LOG][StoppingCriterion.H:239] Creating stopping criterion with minIter 3 frequency 1
[OGL LOG][Proc: 0]Uz: generate_solver: 0.014 [ms]
[OGL LOG][Proc: 0]Uz: solve: 69.024 [ms]
[OGL LOG][Proc: 0]Uz: copy_x_back: 2.217 [ms]
[OGL LOG][lduLduBase.H:330] 
Statistics:
	Time per iteration: 34512 [mu s]
	Time per residual norm calculation: 1243.000000 [mu s]
	Time per iteration and DOF: 5.471897 [ns]
	Retrieve results bandwidth 2.838000 [GByte/s]
[OGL LOG][Proc: 0]Uz: solve_multi_gpu: 77.35299999999999 [ms]
BJcudaGKOBiCGStab:  Solving for Uz, Initial residual = 0.4473287198270126, Final residual = 0.01754343173875451, No Iterations 2
[OGL LOG][Proc: 0]: global_index_init: 0.016 [ms]
[OGL LOG][Proc: 0]p_local_coeffs: call_update: 0 [ms]
[OGL LOG][Proc: 0]p_non_local_coeffs: call_update: 0 [ms]
[OGL LOG][Proc: 0]p: update_local_matrix_data: 26.963 [ms]
[OGL LOG][Proc: 0]p: update_non_local_matrix_data: 0.458 [ms]
[OGL LOG][Proc: 0]p_matrix: call_update: 1.808 [ms]
[OGL LOG][Proc: 0]p_rhs: call_update: 1.832 [ms]
[OGL LOG][Preconditioner.H:271] Generate preconditioner GISAI SparsityPower 1
[OGL LOG][Proc: 0]p: init_precond: 121.182 [ms]
[OGL LOG][StoppingCriterion.H:239] Creating stopping criterion with minIter 605 frequency 14
[OGL LOG][Proc: 0]p: generate_solver: 0.015 [ms]
[OGL LOG][Proc: 0]p: solve: 2913.081 [ms]
[OGL LOG][Proc: 0]p: copy_x_back: 2.304 [ms]
[OGL LOG][lduLduBase.H:330] 
Statistics:
	Time per iteration: 2887 [mu s]
	Time per residual norm calculation: 1263.000000 [mu s]
	Time per iteration and DOF: 0.457735 [ns]
	Retrieve results bandwidth 2.731000 [GByte/s]
[OGL LOG][Proc: 0]p: solve_multi_gpu: 3042.656 [ms]
GISAIcudaGKOCG:  Solving for p, Initial residual = 0.9999999992619505, Final residual = 0.9999999992556373, No Iterations 1009
time step continuity errors : sum local = 391.9758248235501, global = -0.006159809070109506, cumulative = -0.03895905067019594
[OGL LOG][Proc: 0]: global_index_init: 1.434 [ms]
[OGL LOG][Proc: 0]nuTilda_local_coeffs: call_update: 0 [ms]
[OGL LOG][Proc: 0]nuTilda_non_local_coeffs: call_update: 0 [ms]
[OGL LOG][Proc: 0]nuTilda: update_local_matrix_data: 33.927 [ms]
[OGL LOG][Proc: 0]nuTilda: update_non_local_matrix_data: 0.462 [ms]
[OGL LOG][Proc: 0]nuTilda_matrix: call_update: 2.407 [ms]
[OGL LOG][Proc: 0]nuTilda_rhs: call_update: 0.884 [ms]
[OGL LOG][Preconditioner.H:121] Generate preconditioner BJ MaxBlockSize 1
[OGL LOG][Proc: 0]nuTilda: init_precond: 1.832 [ms]
[OGL LOG][StoppingCriterion.H:239] Creating stopping criterion with minIter 7 frequency 1
[OGL LOG][Proc: 0]nuTilda: generate_solver: 0.017 [ms]
[OGL LOG][Proc: 0]nuTilda: solve: 87.358 [ms]
[OGL LOG][Proc: 0]nuTilda: copy_x_back: 2.265 [ms]
[OGL LOG][lduLduBase.H:330] 
Statistics:
	Time per iteration: 14559 [mu s]
	Time per residual norm calculation: 1268.000000 [mu s]
	Time per iteration and DOF: 2.308338 [ns]
	Retrieve results bandwidth 2.778000 [GByte/s]
[OGL LOG][Proc: 0]nuTilda: solve_multi_gpu: 104.193 [ms]
BJcudaGKOBiCGStab:  Solving for nuTilda, Initial residual = 0.3019661118580856, Final residual = 0.02832042250230588, No Iterations 6
ExecutionTime = 212.93 s  ClockTime = 251 s

Time = 11

velocityDampingConstraint velocityDamping damped 61176 (0.97%) of cells, with max limit 300
[OGL LOG][Proc: 0]: global_index_init: 0.021 [ms]
[OGL LOG][Proc: 0]Ux_local_coeffs: call_update: 0 [ms]
[OGL LOG][Proc: 0]Ux_non_local_coeffs: call_update: 0 [ms]
[OGL LOG][Proc: 0]Ux: update_local_matrix_data: 34.856 [ms]
[OGL LOG][Proc: 0]Ux: update_non_local_matrix_data: 0.421 [ms]
[OGL LOG][Proc: 0]Ux_matrix: call_update: 2.544 [ms]
[OGL LOG][Proc: 0]Ux_rhs: call_update: 1.177 [ms]
[OGL LOG][Preconditioner.H:121] Generate preconditioner BJ MaxBlockSize 1
[OGL LOG][Proc: 0]Ux: init_precond: 1.449 [ms]
[OGL LOG][StoppingCriterion.H:239] Creating stopping criterion with minIter 2 frequency 1
[OGL LOG][Proc: 0]Ux: generate_solver: 0.014 [ms]
[OGL LOG][Proc: 0]Ux: solve: 65.983 [ms]
[OGL LOG][Proc: 0]Ux: copy_x_back: 2.375 [ms]
[OGL LOG][lduLduBase.H:330] 
Statistics:
	Time per iteration: 21994 [mu s]
	Time per residual norm calculation: 1634.000000 [mu s]
	Time per iteration and DOF: 3.487161 [ns]
	Retrieve results bandwidth 2.649000 [GByte/s]
[OGL LOG][Proc: 0]Ux: solve_multi_gpu: 78.675 [ms]
BJcudaGKOBiCGStab:  Solving for Ux, Initial residual = 0.5531405902420822, Final residual = 0.0274377202375996, No Iterations 3
[OGL LOG][Proc: 0]: global_index_init: 0.019 [ms]
[OGL LOG][Proc: 0]Uy_local_coeffs: call_update: 0 [ms]
[OGL LOG][Proc: 0]Uy_non_local_coeffs: call_update: 0 [ms]
[OGL LOG][Proc: 0]Uy: update_local_matrix_data: 34.476 [ms]
[OGL LOG][Proc: 0]Uy: update_non_local_matrix_data: 0.41 [ms]
[OGL LOG][Proc: 0]Uy_matrix: call_update: 2.535 [ms]
[OGL LOG][Proc: 0]Uy_rhs: call_update: 1.107 [ms]
[OGL LOG][Preconditioner.H:121] Generate preconditioner BJ MaxBlockSize 1
[OGL LOG][Proc: 0]Uy: init_precond: 1.406 [ms]
[OGL LOG][StoppingCriterion.H:239] Creating stopping criterion with minIter 3 frequency 1
[OGL LOG][Proc: 0]Uy: generate_solver: 0.013 [ms]
[...]
time step continuity errors : sum local = 845166529279.917, global = -0.01628866529389987, cumulative = 0.08386492597725322
[OGL LOG][Proc: 0]: global_index_init: 0.022 [ms]
[OGL LOG][Proc: 0]nuTilda_local_coeffs: call_update: 0 [ms]
[OGL LOG][Proc: 0]nuTilda_non_local_coeffs: call_update: 0 [ms]
[OGL LOG][Proc: 0]nuTilda: update_local_matrix_data: 34.417 [ms]
[OGL LOG][Proc: 0]nuTilda: update_non_local_matrix_data: 0.445 [ms]
[OGL LOG][Proc: 0]nuTilda_matrix: call_update: 2.33 [ms]
[OGL LOG][Proc: 0]nuTilda_rhs: call_update: 1.109 [ms]
[OGL LOG][Preconditioner.H:121] Generate preconditioner BJ MaxBlockSize 1
[OGL LOG][Proc: 0]nuTilda: init_precond: 1.8 [ms]
[OGL LOG][StoppingCriterion.H:239] Creating stopping criterion with minIter 1 frequency 1
[OGL LOG][Proc: 0]nuTilda: generate_solver: 0.016 [ms]
[OGL LOG][Proc: 0]nuTilda: solve: 51.202 [ms]
[OGL LOG][Proc: 0]nuTilda: copy_x_back: 2.24 [ms]
[OGL LOG][lduLduBase.H:330] 
Statistics:
	Time per iteration: 51202 [mu s]
	Time per residual norm calculation: 1412.000000 [mu s]
	Time per iteration and DOF: 8.118106 [ns]
	Retrieve results bandwidth 2.809000 [GByte/s]
[OGL LOG][Proc: 0]nuTilda: solve_multi_gpu: 66.38 [ms]
BJcudaGKOBiCGStab:  Solving for nuTilda, Initial residual = 0.05797975809969263, Final residual = 0.002556558117608839, No Iterations 1
bounding nuTilda, min: -214817150721.7614 max: 67673804125647.06 average: 8045325410.294211
ExecutionTime = 700.89 s  ClockTime = 740 s

Time = 98

velocityDampingConstraint velocityDamping damped 1083600 (17.18%) of cells, with max limit 300
[OGL LOG][Proc: 0]: global_index_init: 0.018 [ms]
[OGL LOG][Proc: 0]Ux_local_coeffs: call_update: 0 [ms]
[OGL LOG][Proc: 0]Ux_non_local_coeffs: call_update: 0 [ms]
[OGL LOG][Proc: 0]Ux: update_local_matrix_data: 36.05 [ms]
[OGL LOG][Proc: 0]Ux: update_non_local_matrix_data: 0.493 [ms]
[OGL LOG][Proc: 0]Ux_matrix: call_update: 2.787 [ms]
[OGL LOG][Proc: 0]Ux_rhs: call_update: 1.036 [ms]
[OGL LOG][Preconditioner.H:121] Generate preconditioner BJ MaxBlockSize 1
[OGL LOG][Proc: 0]Ux: init_precond: 1.48 [ms]
[OGL LOG][StoppingCriterion.H:239] Creating stopping criterion with minIter 4 frequency 1
[OGL LOG][Proc: 0]Ux: generate_solver: 0.015 [ms]
[OGL LOG][Proc: 0]Ux: solve: 66.559 [ms]
[OGL LOG][Proc: 0]Ux: copy_x_back: 2.386 [ms]
[OGL LOG][lduLduBase.H:330] 
Statistics:
	Time per iteration: 22186 [mu s]
	Time per residual norm calculation: 1800.000000 [mu s]
	Time per iteration and DOF: 3.517603 [ns]
	Retrieve results bandwidth 2.637000 [GByte/s]
[OGL LOG][Proc: 0]Ux: solve_multi_gpu: 78.378 [ms]
BJcudaGKOBiCGStab:  Solving for Ux, Initial residual = 0.06813057802010275, Final residual = 0.002386027443442979, No Iterations 3
[OGL LOG][Proc: 0]: global_index_init: 0.026 [ms]
[OGL LOG][Proc: 0]Uy_local_coeffs: call_update: 0 [ms]
[OGL LOG][Proc: 0]Uy_non_local_coeffs: call_update: 0 [ms]
[OGL LOG][Proc: 0]Uy: update_local_matrix_data: 34.909 [ms]
[OGL LOG][Proc: 0]Uy: update_non_local_matrix_data: 0.486 [ms]
[OGL LOG][Proc: 0]Uy_matrix: call_update: 2.037 [ms]
[OGL LOG][Proc: 0]Uy_rhs: call_update: 1.781 [ms]
[OGL LOG][Preconditioner.H:121] Generate preconditioner BJ MaxBlockSize 1
[OGL LOG][Proc: 0]Uy: init_precond: 1.408 [ms]
[OGL LOG][StoppingCriterion.H:239] Creating stopping criterion with minIter 3 frequency 1
[OGL LOG][Proc: 0]Uy: generate_solver: 0.015 [ms]
[OGL LOG][Proc: 0]Uy: solve: 64.889 [ms]
[OGL LOG][Proc: 0]Uy: copy_x_back: 2.325 [ms]
[OGL LOG][lduLduBase.H:330] 
Statistics:
	Time per iteration: 21629 [mu s]
	Time per residual norm calculation: 1638.000000 [mu s]
	Time per iteration and DOF: 3.429290 [ns]
	Retrieve results bandwidth 2.706000 [GByte/s]
[OGL LOG][Proc: 0]Uy: solve_multi_gpu: 76.92100000000001 [ms]
BJcudaGKOBiCGStab:  Solving for Uy, Initial residual = 0.05143671071865247, Final residual = 0.002393827329747172, No Iterations 3
[OGL LOG][Proc: 0]: global_index_init: 0.05 [ms]
[OGL LOG][Proc: 0]Uz_local_coeffs: call_update: 0 [ms]
[OGL LOG][Proc: 0]Uz_non_local_coeffs: call_update: 0 [ms]
[OGL LOG][Proc: 0]Uz: update_local_matrix_data: 36.865 [ms]
[OGL LOG][Proc: 0]Uz: update_non_local_matrix_data: 0.45 [ms]
[OGL LOG][Proc: 0]Uz_matrix: call_update: 2.378 [ms]
[OGL LOG][Proc: 0]Uz_rhs: call_update: 1.144 [ms]
[OGL LOG][Preconditioner.H:121] Generate preconditioner BJ MaxBlockSize 1
[OGL LOG][Proc: 0]Uz: init_precond: 1.372 [ms]
[OGL LOG][StoppingCriterion.H:239] Creating stopping criterion with minIter 2 frequency 1
[OGL LOG][Proc: 0]Uz: generate_solver: 0.015 [ms]
[OGL LOG][Proc: 0]Uz: solve: 61.082 [ms]
[OGL LOG][Proc: 0]Uz: copy_x_back: 2.372 [ms]
[OGL LOG][lduLduBase.H:330] 
Statistics:
	Time per iteration: 30541 [mu s]
	Time per residual norm calculation: 1592.000000 [mu s]
	Time per iteration and DOF: 4.842293 [ns]
	Retrieve results bandwidth 2.652000 [GByte/s]
[OGL LOG][Proc: 0]Uz: solve_multi_gpu: 72.29600000000001 [ms]
BJcudaGKOBiCGStab:  Solving for Uz, Initial residual = 0.05884370824063893, Final residual = 0.003831847811465186, No Iterations 2
[OGL LOG][Proc: 0]: global_index_init: 0.017 [ms]
[OGL LOG][Proc: 0]p_local_coeffs: call_update: 0 [ms]
[OGL LOG][Proc: 0]p_non_local_coeffs: call_update: 0 [ms]
[OGL LOG][Proc: 0]p: update_local_matrix_data: 27.18 [ms]
[OGL LOG][Proc: 0]p: update_non_local_matrix_data: 0.458 [ms]
[OGL LOG][Proc: 0]p_matrix: call_update: 2.211 [ms]
[OGL LOG][Proc: 0]p_rhs: call_update: 1.181 [ms]
[OGL LOG][Preconditioner.H:271] Generate preconditioner GISAI SparsityPower 1
[OGL LOG][Proc: 0]p: init_precond: 120.208 [ms]
[OGL LOG][StoppingCriterion.H:239] Creating stopping criterion with minIter 0 frequency 1
[OGL LOG][Proc: 0]p: generate_solver: 0.016 [ms]
[OGL LOG][Proc: 0]p: solve: 40.266 [ms]
[OGL LOG][Proc: 0]p: copy_x_back: 2.182 [ms]
[OGL LOG][lduLduBase.H:330] 
Statistics:
	Time per iteration: 40266 [mu s]
	Time per residual norm calculation: 26257.000000 [mu s]
	Time per iteration and DOF: 6.384197 [ns]
	Retrieve results bandwidth 2.883000 [GByte/s]
[OGL LOG][Proc: 0]p: solve_multi_gpu: 169.775 [ms]
GISAIcudaGKOCG:  Solving for p, Initial residual = 1.984570874151439e-13, Final residual = 1.984570874151439e-13, No Iterations 1
time step continuity errors : sum local = 863708011214.9968, global = -0.01625495781157894, cumulative = 0.06760996816567427
[OGL LOG][Proc: 0]: global_index_init: 0.8129999999999999 [ms]
[OGL LOG][Proc: 0]nuTilda_local_coeffs: call_update: 0 [ms]
[OGL LOG][Proc: 0]nuTilda_non_local_coeffs: call_update: 0 [ms]
[OGL LOG][Proc: 0]nuTilda: update_local_matrix_data: 33.126 [ms]
[OGL LOG][Proc: 0]nuTilda: update_non_local_matrix_data: 0.472 [ms]
[OGL LOG][Proc: 0]nuTilda_matrix: call_update: 2.103 [ms]
[OGL LOG][Proc: 0]nuTilda_rhs: call_update: 1.201 [ms]
[OGL LOG][Preconditioner.H:121] Generate preconditioner BJ MaxBlockSize 1
[OGL LOG][Proc: 0]nuTilda: init_precond: 0.975 [ms]
[OGL LOG][StoppingCriterion.H:239] Creating stopping criterion with minIter 1 frequency 1
[OGL LOG][Proc: 0]nuTilda: generate_solver: 0.014 [ms]
[OGL LOG][Proc: 0]nuTilda: solve: 50.859 [ms]
[OGL LOG][Proc: 0]nuTilda: copy_x_back: 2.11 [ms]
[OGL LOG][lduLduBase.H:330] 
Statistics:
	Time per iteration: 50859 [mu s]
	Time per residual norm calculation: 1114.000000 [mu s]
	Time per iteration and DOF: 8.063723 [ns]
	Retrieve results bandwidth 2.982000 [GByte/s]
[OGL LOG][Proc: 0]nuTilda: solve_multi_gpu: 67.76300000000001 [ms]
BJcudaGKOBiCGStab:  Solving for nuTilda, Initial residual = 0.05732579221500904, Final residual = 0.002102548375479997, No Iterations 1
bounding nuTilda, min: -32371389156.86847 max: 59605454853971.11 average: 7435556740.492448
ExecutionTime = 704.5700000000001 s  ClockTime = 744 s

Time = 99

velocityDampingConstraint velocityDamping damped 1102577 (17.48%) of cells, with max limit 300
[OGL LOG][Proc: 0]: global_index_init: 0.014 [ms]
[OGL LOG][Proc: 0]Ux_local_coeffs: call_update: 0 [ms]
[OGL LOG][Proc: 0]Ux_non_local_coeffs: call_update: 0 [ms]
[OGL LOG][Proc: 0]Ux: update_local_matrix_data: 35.005 [ms]
[OGL LOG][Proc: 0]Ux: update_non_local_matrix_data: 0.436 [ms]
[OGL LOG][Proc: 0]Ux_matrix: call_update: 2.961 [ms]
[OGL LOG][Proc: 0]Ux_rhs: call_update: 1.06 [ms]
[OGL LOG][Preconditioner.H:121] Generate preconditioner BJ MaxBlockSize 1
[OGL LOG][Proc: 0]Ux: init_precond: 1.495 [ms]
[OGL LOG][StoppingCriterion.H:239] Creating stopping criterion with minIter 4 frequency 1
[OGL LOG][Proc: 0]Ux: generate_solver: 0.025 [ms]
[OGL LOG][Proc: 0]Ux: solve: 67.694 [ms]
[OGL LOG][Proc: 0]Ux: copy_x_back: 2.342 [ms]
[OGL LOG][lduLduBase.H:330] 
Statistics:
	Time per iteration: 22564 [mu s]
	Time per residual norm calculation: 1615.000000 [mu s]
	Time per iteration and DOF: 3.577535 [ns]
	Retrieve results bandwidth 2.686000 [GByte/s]
[OGL LOG][Proc: 0]Ux: solve_multi_gpu: 79.71899999999999 [ms]
BJcudaGKOBiCGStab:  Solving for Ux, Initial residual = 0.07842840397508033, Final residual = 0.004536254375264321, No Iterations 3
[OGL LOG][Proc: 0]: global_index_init: 0.03 [ms]
[OGL LOG][Proc: 0]Uy_local_coeffs: call_update: 0 [ms]
[OGL LOG][Proc: 0]Uy_non_local_coeffs: call_update: 0 [ms]
[OGL LOG][Proc: 0]Uy: update_local_matrix_data: 34.148 [ms]
[OGL LOG][Proc: 0]Uy: update_non_local_matrix_data: 0.483 [ms]
[OGL LOG][Proc: 0]Uy_matrix: call_update: 2.924 [ms]
[OGL LOG][Proc: 0]Uy_rhs: call_update: 0.823 [ms]
[OGL LOG][Preconditioner.H:121] Generate preconditioner BJ MaxBlockSize 1
[OGL LOG][Proc: 0]Uy: init_precond: 1.407 [ms]
[OGL LOG][StoppingCriterion.H:239] Creating stopping criterion with minIter 3 frequency 1
[OGL LOG][Proc: 0]Uy: generate_solver: 0.019 [ms]
[OGL LOG][Proc: 0]Uy: solve: 63.546 [ms]
[OGL LOG][Proc: 0]Uy: copy_x_back: 2.346 [ms]
[OGL LOG][lduLduBase.H:330] 
Statistics:
	Time per iteration: 21182 [mu s]
	Time per residual norm calculation: 1824.000000 [mu s]
	Time per iteration and DOF: 3.358418 [ns]
	Retrieve results bandwidth 2.682000 [GByte/s]
[OGL LOG][Proc: 0]Uy: solve_multi_gpu: 76.572 [ms]
BJcudaGKOBiCGStab:  Solving for Uy, Initial residual = 0.06281091756362617, Final residual = 0.00261363572548629, No Iterations 3
[OGL LOG][Proc: 0]: global_index_init: 0.014 [ms]
[OGL LOG][Proc: 0]Uz_local_coeffs: call_update: 0 [ms]
[OGL LOG][Proc: 0]Uz_non_local_coeffs: call_update: 0 [ms]
[OGL LOG][Proc: 0]Uz: update_local_matrix_data: 34.556 [ms]
[OGL LOG][Proc: 0]Uz: update_non_local_matrix_data: 0.44 [ms]
[OGL LOG][Proc: 0]Uz_matrix: call_update: 2.937 [ms]
[OGL LOG][Proc: 0]Uz_rhs: call_update: 0.86 [ms]
[OGL LOG][Preconditioner.H:121] Generate preconditioner BJ MaxBlockSize 1
[OGL LOG][Proc: 0]Uz: init_precond: 1.344 [ms]
[OGL LOG][StoppingCriterion.H:239] Creating stopping criterion with minIter 3 frequency 1
[OGL LOG][Proc: 0]Uz: generate_solver: 0.014 [ms]
[OGL LOG][Proc: 0]Uz: solve: 57.446 [ms]
[OGL LOG][Proc: 0]Uz: copy_x_back: 2.215 [ms]
[OGL LOG][lduLduBase.H:330] 
Statistics:
	Time per iteration: 28723 [mu s]
	Time per residual norm calculation: 1485.000000 [mu s]
	Time per iteration and DOF: 4.554048 [ns]
	Retrieve results bandwidth 2.841000 [GByte/s]
[OGL LOG][Proc: 0]Uz: solve_multi_gpu: 69.086 [ms]
BJcudaGKOBiCGStab:  Solving for Uz, Initial residual = 0.05707253727247926, Final residual = 0.005258510549085817, No Iterations 2
[OGL LOG][Proc: 0]: global_index_init: 0.016 [ms]
[OGL LOG][Proc: 0]p_local_coeffs: call_update: 0 [ms]
[OGL LOG][Proc: 0]p_non_local_coeffs: call_update: 0 [ms]
[OGL LOG][Proc: 0]p: update_local_matrix_data: 26.784 [ms]
[OGL LOG][Proc: 0]p: update_non_local_matrix_data: 0.46 [ms]
[OGL LOG][Proc: 0]p_matrix: call_update: 2.678 [ms]
[OGL LOG][Proc: 0]p_rhs: call_update: 1.078 [ms]
[OGL LOG][Preconditioner.H:271] Generate preconditioner GISAI SparsityPower 1
[OGL LOG][Proc: 0]p: init_precond: 109.995 [ms]
[OGL LOG][StoppingCriterion.H:239] Creating stopping criterion with minIter 0 frequency 1
[OGL LOG][Proc: 0]p: generate_solver: 0.017 [ms]
[OGL LOG][Proc: 0]p: solve: 43.988 [ms]
[OGL LOG][Proc: 0]p: copy_x_back: 2.21 [ms]
[OGL LOG][lduLduBase.H:330] 
Statistics:
	Time per iteration: 43988 [mu s]
	Time per residual norm calculation: 26693.000000 [mu s]
	Time per iteration and DOF: 6.974322 [ns]
	Retrieve results bandwidth 2.847000 [GByte/s]
[OGL LOG][Proc: 0]p: solve_multi_gpu: 163.666 [ms]
GISAIcudaGKOCG:  Solving for p, Initial residual = 1.746196808817376e-13, Final residual = 1.746196808817376e-13, No Iterations 1
time step continuity errors : sum local = 758922143824.8068, global = -0.01627733807182863, cumulative = 0.05133263009384564
[OGL LOG][Proc: 0]: global_index_init: 0.837 [ms]
[OGL LOG][Proc: 0]nuTilda_local_coeffs: call_update: 0 [ms]
[OGL LOG][Proc: 0]nuTilda_non_local_coeffs: call_update: 0 [ms]
[OGL LOG][Proc: 0]nuTilda: update_local_matrix_data: 39.093 [ms]
[OGL LOG][Proc: 0]nuTilda: update_non_local_matrix_data: 0.461 [ms]
[OGL LOG][Proc: 0]nuTilda_matrix: call_update: 2.479 [ms]
[OGL LOG][Proc: 0]nuTilda_rhs: call_update: 0.874 [ms]
[OGL LOG][Preconditioner.H:121] Generate preconditioner BJ MaxBlockSize 1
[OGL LOG][Proc: 0]nuTilda: init_precond: 1.391 [ms]
[OGL LOG][StoppingCriterion.H:239] Creating stopping criterion with minIter 1 frequency 1
[OGL LOG][Proc: 0]nuTilda: generate_solver: 0.015 [ms]
[OGL LOG][Proc: 0]nuTilda: solve: 53.143 [ms]
[OGL LOG][Proc: 0]nuTilda: copy_x_back: 2.21 [ms]
[OGL LOG][lduLduBase.H:330] 
Statistics:
	Time per iteration: 53143 [mu s]
	Time per residual norm calculation: 1445.000000 [mu s]
	Time per iteration and DOF: 8.425853 [ns]
	Retrieve results bandwidth 2.847000 [GByte/s]
[OGL LOG][Proc: 0]nuTilda: solve_multi_gpu: 66.974 [ms]
BJcudaGKOBiCGStab:  Solving for nuTilda, Initial residual = 0.05709440410873518, Final residual = 0.00200949070655338, No Iterations 1
bounding nuTilda, min: -54571826937.87445 max: 52467528530103.53 average: 6867959622.982665
ExecutionTime = 708.24 s  ClockTime = 748 s

Time = 100

velocityDampingConstraint velocityDamping damped 1125508 (17.84%) of cells, with max limit 300
[OGL LOG][Proc: 0]: global_index_init: 0.034 [ms]
[OGL LOG][Proc: 0]Ux_local_coeffs: call_update: 0 [ms]
[OGL LOG][Proc: 0]Ux_non_local_coeffs: call_update: 0 [ms]
[OGL LOG][Proc: 0]Ux: update_local_matrix_data: 36.019 [ms]
[OGL LOG][Proc: 0]Ux: update_non_local_matrix_data: 0.477 [ms]
[OGL LOG][Proc: 0]Ux_matrix: call_update: 2.011 [ms]
[OGL LOG][Proc: 0]Ux_rhs: call_update: 1.493 [ms]
[OGL LOG][Preconditioner.H:121] Generate preconditioner BJ MaxBlockSize 1
[OGL LOG][Proc: 0]Ux: init_precond: 1.803 [ms]
[OGL LOG][StoppingCriterion.H:239] Creating stopping criterion with minIter 4 frequency 1
[OGL LOG][Proc: 0]Ux: generate_solver: 0.014 [ms]
[OGL LOG][Proc: 0]Ux: solve: 102.227 [ms]
[OGL LOG][Proc: 0]Ux: copy_x_back: 2.257 [ms]
[OGL LOG][lduLduBase.H:330] 
Statistics:
	Time per iteration: 25556 [mu s]
	Time per residual norm calculation: 1840.000000 [mu s]
	Time per iteration and DOF: 4.051918 [ns]
	Retrieve results bandwidth 2.788000 [GByte/s]
[OGL LOG][Proc: 0]Ux: solve_multi_gpu: 114.362 [ms]
BJcudaGKOBiCGStab:  Solving for Ux, Initial residual = 0.0735161441459454, Final residual = 0.004886151378675942, No Iterations 4
[OGL LOG][Proc: 0]: global_index_init: 1.189 [ms]
[OGL LOG][Proc: 0]Uy_local_coeffs: call_update: 0 [ms]
[OGL LOG][Proc: 0]Uy_non_local_coeffs: call_update: 0 [ms]
[OGL LOG][Proc: 0]Uy: update_local_matrix_data: 33.647 [ms]
[OGL LOG][Proc: 0]Uy: update_non_local_matrix_data: 0.44 [ms]
[OGL LOG][Proc: 0]Uy_matrix: call_update: 2.678 [ms]
[OGL LOG][Proc: 0]Uy_rhs: call_update: 1.128 [ms]
[OGL LOG][Preconditioner.H:121] Generate preconditioner BJ MaxBlockSize 1
[OGL LOG][Proc: 0]Uy: init_precond: 2.147 [ms]
[OGL LOG][StoppingCriterion.H:239] Creating stopping criterion with minIter 3 frequency 1
[OGL LOG][Proc: 0]Uy: generate_solver: 0.016 [ms]
[OGL LOG][Proc: 0]Uy: solve: 75.172 [ms]
[OGL LOG][Proc: 0]Uy: copy_x_back: 2.316 [ms]
[OGL LOG][lduLduBase.H:330] 
Statistics:
	Time per iteration: 25057 [mu s]
	Time per residual norm calculation: 1817.000000 [mu s]
	Time per iteration and DOF: 3.972802 [ns]
	Retrieve results bandwidth 2.717000 [GByte/s]
[OGL LOG][Proc: 0]Uy: solve_multi_gpu: 100.134 [ms]
BJcudaGKOBiCGStab:  Solving for Uy, Initial residual = 0.06082021805984682, Final residual = 0.002150852347055597, No Iterations 3
[OGL LOG][Proc: 0]: global_index_init: 0.013 [ms]
[OGL LOG][Proc: 0]Uz_local_coeffs: call_update: 0 [ms]
[OGL LOG][Proc: 0]Uz_non_local_coeffs: call_update: 0 [ms]
[OGL LOG][Proc: 0]Uz: update_local_matrix_data: 36.742 [ms]
[OGL LOG][Proc: 0]Uz: update_non_local_matrix_data: 0.437 [ms]
[OGL LOG][Proc: 0]Uz_matrix: call_update: 2.451 [ms]
[OGL LOG][Proc: 0]Uz_rhs: call_update: 1.037 [ms]
[OGL LOG][Preconditioner.H:121] Generate preconditioner BJ MaxBlockSize 1
[OGL LOG][Proc: 0]Uz: init_precond: 1.383 [ms]
[OGL LOG][StoppingCriterion.H:239] Creating stopping criterion with minIter 3 frequency 1
[OGL LOG][Proc: 0]Uz: generate_solver: 0.015 [ms]
[OGL LOG][Proc: 0]Uz: solve: 62.513 [ms]
[OGL LOG][Proc: 0]Uz: copy_x_back: 2.215 [ms]
[OGL LOG][lduLduBase.H:330] 
Statistics:
	Time per iteration: 20837 [mu s]
	Time per residual norm calculation: 1258.000000 [mu s]
	Time per iteration and DOF: 3.303718 [ns]
	Retrieve results bandwidth 2.841000 [GByte/s]
[OGL LOG][Proc: 0]Uz: solve_multi_gpu: 72.268 [ms]
BJcudaGKOBiCGStab:  Solving for Uz, Initial residual = 0.05688711679238298, Final residual = 0.001240013692215708, No Iterations 3
[OGL LOG][Proc: 0]: global_index_init: 0.168 [ms]
[OGL LOG][Proc: 0]p_local_coeffs: call_update: 0 [ms]
[OGL LOG][Proc: 0]p_non_local_coeffs: call_update: 0 [ms]
[OGL LOG][Proc: 0]p: update_local_matrix_data: 26.995 [ms]
[OGL LOG][Proc: 0]p: update_non_local_matrix_data: 0.439 [ms]
[OGL LOG][Proc: 0]p_matrix: call_update: 2.341 [ms]
[OGL LOG][Proc: 0]p_rhs: call_update: 1.224 [ms]
[OGL LOG][Preconditioner.H:271] Generate preconditioner GISAI SparsityPower 1
[OGL LOG][Proc: 0]p: init_precond: 107.973 [ms]
[OGL LOG][StoppingCriterion.H:239] Creating stopping criterion with minIter 0 frequency 1
[OGL LOG][Proc: 0]p: generate_solver: 0.015 [ms]
[OGL LOG][Proc: 0]p: solve: 50.073 [ms]
[OGL LOG][Proc: 0]p: copy_x_back: 2.221 [ms]
[OGL LOG][lduLduBase.H:330] 
Statistics:
	Time per iteration: 50073 [mu s]
	Time per residual norm calculation: 25915.000000 [mu s]
	Time per iteration and DOF: 7.939103 [ns]
	Retrieve results bandwidth 2.833000 [GByte/s]
[OGL LOG][Proc: 0]p: solve_multi_gpu: 166.933 [ms]
GISAIcudaGKOCG:  Solving for p, Initial residual = 1.901547004754399e-13, Final residual = 1.901547004754399e-13, No Iterations 1
time step continuity errors : sum local = 826382946726.3004, global = -0.01605991024483933, cumulative = 0.03527271984900631
[OGL LOG][Proc: 0]: global_index_init: 0.018 [ms]
[OGL LOG][Proc: 0]nuTilda_local_coeffs: call_update: 0 [ms]
[OGL LOG][Proc: 0]nuTilda_non_local_coeffs: call_update: 0 [ms]
[OGL LOG][Proc: 0]nuTilda: update_local_matrix_data: 33.607 [ms]
[OGL LOG][Proc: 0]nuTilda: update_non_local_matrix_data: 0.43 [ms]
[OGL LOG][Proc: 0]nuTilda_matrix: call_update: 2.153 [ms]
[OGL LOG][Proc: 0]nuTilda_rhs: call_update: 1.133 [ms]
[OGL LOG][Preconditioner.H:121] Generate preconditioner BJ MaxBlockSize 1
[OGL LOG][Proc: 0]nuTilda: init_precond: 1.25 [ms]
[OGL LOG][StoppingCriterion.H:239] Creating stopping criterion with minIter 1 frequency 1
[OGL LOG][Proc: 0]nuTilda: generate_solver: 0.015 [ms]
[OGL LOG][Proc: 0]nuTilda: solve: 50.31 [ms]
[OGL LOG][Proc: 0]nuTilda: copy_x_back: 2.089 [ms]
[OGL LOG][lduLduBase.H:330] 
Statistics:
	Time per iteration: 50310 [mu s]
	Time per residual norm calculation: 1119.000000 [mu s]
	Time per iteration and DOF: 7.976679 [ns]
	Retrieve results bandwidth 3.012000 [GByte/s]
[OGL LOG][Proc: 0]nuTilda: solve_multi_gpu: 63.888 [ms]
BJcudaGKOBiCGStab:  Solving for nuTilda, Initial residual = 0.05638295836946873, Final residual = 0.002565908513488094, No Iterations 1
bounding nuTilda, min: -300749766.2300431 max: 46263951435675.05 average: 6355073013.172367
ExecutionTime = 711.98 s  ClockTime = 751 s

End

Finalising parallel run
