/*---------------------------------------------------------------------------*\
| =========                 |                                                 |
| \\      /  F ield         | OpenFOAM: The Open Source CFD Toolbox           |
|  \\    /   O peration     | Version:  v2106                                 |
|   \\  /    A nd           | Website:  www.openfoam.com                      |
|    \\/     M anipulation  |                                                 |
\*---------------------------------------------------------------------------*/
Build  : f815a12bba-20210902 OPENFOAM=2106
Arch   : "LSB;label=32;scalar=64"
Exec   : simpleFoam -parallel -case /home/greole/data/code/exasim_project/micro_benchmarks/WindsorBody/workspace/3eb2f143b047a46373fb41f35024eca7/case
Date   : Jun 25 2023
Time   : 18:10:10
Host   : nla-gpu2.ianm.kit.edu
PID    : 3724237
I/O    : uncollated
Case   : /home/greole/data/code/exasim_project/micro_benchmarks/WindsorBody/workspace/3eb2f143b047a46373fb41f35024eca7/case
nProcs : 32
Hosts  :
(
    (nla-gpu2.ianm.kit.edu 32)
)
Pstream initialized with:
    floatTransfer      : 0
    nProcsSimpleSum    : 0
    commsType          : nonBlocking
    polling iterations : 0
trapFpe: Floating point exception trapping enabled (FOAM_SIGFPE).
fileModificationChecking : Monitoring run-time modified files using timeStampMaster (fileModificationSkew 5, maxFileModificationPolls 20)
allowSystemOperations : Allowing user-supplied system call operations

// * * * * * * * * * * * * * * * * * * * * * * * * * * * * * * * * * * * * * //
Create time

Create mesh for time = 0


SIMPLE: convergence criteria
    field p	 tolerance 1e-08
    field U	 tolerance 1e-08
    field k	 tolerance 1e-08
    field omega	 tolerance 1e-08
    field nuTilda	 tolerance 1e-08

Reading field p

Reading field U

Reading/calculating face flux field phi

Selecting incompressible transport model Newtonian
Selecting turbulence model type RAS
Selecting RAS turbulence model SpalartAllmaras
Selecting patchDistMethod meshWave
RAS
{
    RASModel        SpalartAllmaras;
    turbulence      on;
    printCoeffs     on;
    sigmaNut        0.6666666666666666;
    kappa           0.41;
    Cb1             0.1355;
    Cb2             0.622;
    Cw2             0.3;
    Cw3             2;
    Cv1             7.1;
    Cs              0.3;
}

No MRF models present

Creating finite volume options from "system/fvOptions"

Selecting finite volume options type velocityDampingConstraint
    Source: velocityDamping
    - selecting all cells
    - selected 18921408 cell(s) with volume 83.47749154816285

Starting time loop

--> FOAM Warning : 
    From bool Foam::functionObjectList::read()
    in file db/functionObjects/functionObjectList/functionObjectList.C at line 1013
    Reading "/home/greole/data/code/exasim_project/micro_benchmarks/WindsorBody/workspace/3eb2f143b047a46373fb41f35024eca7/case/system/controlDict" at line 2 to 41
    Entry lref is not a dictionary
--> FOAM Warning : 
    From bool Foam::functionObjectList::read()
    in file db/functionObjects/functionObjectList/functionObjectList.C at line 1013
    Reading "/home/greole/data/code/exasim_project/micro_benchmarks/WindsorBody/workspace/3eb2f143b047a46373fb41f35024eca7/case/system/controlDict" at line 2 to 41
    Entry Aref is not a dictionary
--> FOAM Warning : 
    From bool Foam::functionObjectList::read()
    in file db/functionObjects/functionObjectList/functionObjectList.C at line 1013
    Reading "/home/greole/data/code/exasim_project/micro_benchmarks/WindsorBody/workspace/3eb2f143b047a46373fb41f35024eca7/case/system/controlDict" at line 2 to 41
    Entry yawAngle is not a dictionary
--> FOAM Warning : 
    From bool Foam::functionObjectList::read()
    in file db/functionObjects/functionObjectList/functionObjectList.C at line 1013
    Reading "/home/greole/data/code/exasim_project/micro_benchmarks/WindsorBody/workspace/3eb2f143b047a46373fb41f35024eca7/case/system/controlDict" at line 2 to 41
    Entry lDomain is not a dictionary
--> FOAM Warning : 
    From bool Foam::functionObjectList::read()
    in file db/functionObjects/functionObjectList/functionObjectList.C at line 1013
    Reading "/home/greole/data/code/exasim_project/micro_benchmarks/WindsorBody/workspace/3eb2f143b047a46373fb41f35024eca7/case/system/controlDict" at line 2 to 41
    Entry bDomain is not a dictionary
--> FOAM Warning : 
    From bool Foam::functionObjectList::read()
    in file db/functionObjects/functionObjectList/functionObjectList.C at line 1013
    Reading "/home/greole/data/code/exasim_project/micro_benchmarks/WindsorBody/workspace/3eb2f143b047a46373fb41f35024eca7/case/system/controlDict" at line 2 to 41
    Entry hDomain is not a dictionary
--> FOAM Warning : 
    From bool Foam::functionObjectList::read()
    in file db/functionObjects/functionObjectList/functionObjectList.C at line 1013
    Reading "/home/greole/data/code/exasim_project/micro_benchmarks/WindsorBody/workspace/3eb2f143b047a46373fb41f35024eca7/case/system/controlDict" at line 2 to 41
    Entry xCenter is not a dictionary
--> FOAM Warning : 
    From bool Foam::functionObjectList::read()
    in file db/functionObjects/functionObjectList/functionObjectList.C at line 1013
    Reading "/home/greole/data/code/exasim_project/micro_benchmarks/WindsorBody/workspace/3eb2f143b047a46373fb41f35024eca7/case/system/controlDict" at line 2 to 41
    Entry yCenter is not a dictionary
--> FOAM Warning : 
    From bool Foam::functionObjectList::read()
    in file db/functionObjects/functionObjectList/functionObjectList.C at line 1013
    Reading "/home/greole/data/code/exasim_project/micro_benchmarks/WindsorBody/workspace/3eb2f143b047a46373fb41f35024eca7/case/system/controlDict" at line 2 to 41
    Entry zCenter is not a dictionary
--> FOAM Warning : 
    From bool Foam::functionObjectList::read()
    in file db/functionObjects/functionObjectList/functionObjectList.C at line 1013
    Reading "/home/greole/data/code/exasim_project/micro_benchmarks/WindsorBody/workspace/3eb2f143b047a46373fb41f35024eca7/case/system/controlDict" at line 2 to 41
    Entry inletPatch is not a dictionary
--> FOAM Warning : 
    From bool Foam::functionObjectList::read()
    in file db/functionObjects/functionObjectList/functionObjectList.C at line 1013
    Reading "/home/greole/data/code/exasim_project/micro_benchmarks/WindsorBody/workspace/3eb2f143b047a46373fb41f35024eca7/case/system/controlDict" at line 2 to 41
    Entry outletPatch is not a dictionary
--> FOAM Warning : 
    From bool Foam::functionObjectList::read()
    in file db/functionObjects/functionObjectList/functionObjectList.C at line 1013
    Reading "/home/greole/data/code/exasim_project/micro_benchmarks/WindsorBody/workspace/3eb2f143b047a46373fb41f35024eca7/case/system/controlDict" at line 2 to 41
    Entry wallPatches is not a dictionary
--> FOAM Warning : 
    From bool Foam::functionObjectList::read()
    in file db/functionObjects/functionObjectList/functionObjectList.C at line 1013
    Reading "/home/greole/data/code/exasim_project/micro_benchmarks/WindsorBody/workspace/3eb2f143b047a46373fb41f35024eca7/case/system/controlDict" at line 2 to 41
    Entry forcesWallPatches is not a dictionary
--> FOAM Warning : 
    From bool Foam::functionObjectList::read()
    in file db/functionObjects/functionObjectList/functionObjectList.C at line 1013
    Reading "/home/greole/data/code/exasim_project/micro_benchmarks/WindsorBody/workspace/3eb2f143b047a46373fb41f35024eca7/case/system/controlDict" at line 2 to 41
    Entry symmPatches is not a dictionary
--> FOAM Warning : 
    From bool Foam::functionObjectList::read()
    in file db/functionObjects/functionObjectList/functionObjectList.C at line 1013
    Reading "/home/greole/data/code/exasim_project/micro_benchmarks/WindsorBody/workspace/3eb2f143b047a46373fb41f35024eca7/case/system/controlDict" at line 2 to 41
    Entry Uinf is not a dictionary
--> FOAM Warning : 
    From bool Foam::functionObjectList::read()
    in file db/functionObjects/functionObjectList/functionObjectList.C at line 1013
    Reading "/home/greole/data/code/exasim_project/micro_benchmarks/WindsorBody/workspace/3eb2f143b047a46373fb41f35024eca7/case/system/controlDict" at line 2 to 41
    Entry UinfMag is not a dictionary
--> FOAM Warning : 
    From bool Foam::functionObjectList::read()
    in file db/functionObjects/functionObjectList/functionObjectList.C at line 1013
    Reading "/home/greole/data/code/exasim_project/micro_benchmarks/WindsorBody/workspace/3eb2f143b047a46373fb41f35024eca7/case/system/controlDict" at line 2 to 41
    Entry nu is not a dictionary
--> FOAM Warning : 
    From bool Foam::functionObjectList::read()
    in file db/functionObjects/functionObjectList/functionObjectList.C at line 1013
    Reading "/home/greole/data/code/exasim_project/micro_benchmarks/WindsorBody/workspace/3eb2f143b047a46373fb41f35024eca7/case/system/controlDict" at line 2 to 41
    Entry pref is not a dictionary
--> FOAM Warning : 
    From bool Foam::functionObjectList::read()
    in file db/functionObjects/functionObjectList/functionObjectList.C at line 1013
    Reading "/home/greole/data/code/exasim_project/micro_benchmarks/WindsorBody/workspace/3eb2f143b047a46373fb41f35024eca7/case/system/controlDict" at line 2 to 41
    Entry viscRatio is not a dictionary
--> FOAM Warning : 
    From bool Foam::functionObjectList::read()
    in file db/functionObjects/functionObjectList/functionObjectList.C at line 1013
    Reading "/home/greole/data/code/exasim_project/micro_benchmarks/WindsorBody/workspace/3eb2f143b047a46373fb41f35024eca7/case/system/controlDict" at line 2 to 41
    Entry Tu is not a dictionary
--> FOAM Warning : 
    From bool Foam::functionObjectList::read()
    in file db/functionObjects/functionObjectList/functionObjectList.C at line 1013
    Reading "/home/greole/data/code/exasim_project/micro_benchmarks/WindsorBody/workspace/3eb2f143b047a46373fb41f35024eca7/case/system/controlDict" at line 2 to 41
    Entry LESturbModel is not a dictionary
--> FOAM Warning : 
    From bool Foam::functionObjectList::read()
    in file db/functionObjects/functionObjectList/functionObjectList.C at line 1013
    Reading "/home/greole/data/code/exasim_project/micro_benchmarks/WindsorBody/workspace/3eb2f143b047a46373fb41f35024eca7/case/system/controlDict" at line 2 to 41
    Entry RASturbModel is not a dictionary
--> FOAM Warning : 
    From bool Foam::functionObjectList::read()
    in file db/functionObjects/functionObjectList/functionObjectList.C at line 1013
    Reading "/home/greole/data/code/exasim_project/micro_benchmarks/WindsorBody/workspace/3eb2f143b047a46373fb41f35024eca7/case/system/controlDict" at line 2 to 41
    Entry deltaTurb is not a dictionary
--> FOAM Warning : 
    From bool Foam::functionObjectList::read()
    in file db/functionObjects/functionObjectList/functionObjectList.C at line 1013
    Reading "/home/greole/data/code/exasim_project/micro_benchmarks/WindsorBody/workspace/3eb2f143b047a46373fb41f35024eca7/case/system/controlDict" at line 2 to 41
    Entry dt is not a dictionary
--> FOAM Warning : 
    From bool Foam::functionObjectList::read()
    in file db/functionObjects/functionObjectList/functionObjectList.C at line 1013
    Reading "/home/greole/data/code/exasim_project/micro_benchmarks/WindsorBody/workspace/3eb2f143b047a46373fb41f35024eca7/case/system/controlDict" at line 2 to 41
    Entry tAvg is not a dictionary
--> FOAM Warning : 
    From bool Foam::functionObjectList::read()
    in file db/functionObjects/functionObjectList/functionObjectList.C at line 1013
    Reading "/home/greole/data/code/exasim_project/micro_benchmarks/WindsorBody/workspace/3eb2f143b047a46373fb41f35024eca7/case/system/controlDict" at line 2 to 41
    Entry tEnd is not a dictionary
--> FOAM Warning : 
    From bool Foam::functionObjectList::read()
    in file db/functionObjects/functionObjectList/functionObjectList.C at line 1013
    Reading "/home/greole/data/code/exasim_project/micro_benchmarks/WindsorBody/workspace/3eb2f143b047a46373fb41f35024eca7/case/system/controlDict" at line 2 to 41
    Entry writeInterval_ is not a dictionary
--> FOAM Warning : 
    From bool Foam::functionObjectList::read()
    in file db/functionObjects/functionObjectList/functionObjectList.C at line 1013
    Reading "/home/greole/data/code/exasim_project/micro_benchmarks/WindsorBody/workspace/3eb2f143b047a46373fb41f35024eca7/case/system/controlDict" at line 2 to 41
    Entry nCores is not a dictionary
--> FOAM Warning : 
    From bool Foam::functionObjectList::read()
    in file db/functionObjects/functionObjectList/functionObjectList.C at line 1013
    Reading "/home/greole/data/code/exasim_project/micro_benchmarks/WindsorBody/workspace/3eb2f143b047a46373fb41f35024eca7/case/system/controlDict" at line 2 to 41
    Entry interpScheme is not a dictionary
--> FOAM Warning : 
    From bool Foam::functionObjectList::read()
    in file db/functionObjects/functionObjectList/functionObjectList.C at line 1013
    Reading "/home/greole/data/code/exasim_project/micro_benchmarks/WindsorBody/workspace/3eb2f143b047a46373fb41f35024eca7/case/system/controlDict" at line 2 to 41
    Entry probeField is not a dictionary
wallShearStress wallShearStress:
    processing wall patches: 
        Windsor_Body
        CFDWT_Floor
        Windsor_Pins
        Windsor_Base
        Windsor_Body_2
        CFDWT_Floor_2
        Windsor_Pins_2
        Windsor_Base_2
        Windsor_Body_3
        CFDWT_Floor_3
        Windsor_Pins_3
        Windsor_Base_3

pressure calc_cp:
    Operating mode: staticCoeff
    Not including hydrostatic effects

forceCoeffs forceCoeffsAll:
    rho: rhoInf
    Freestream density (rhoInf) set to 1
    Not including porosity effects

forceCoeffs dragCoeffBase:
    rho: rhoInf
    Freestream density (rhoInf) set to 1
    Not including porosity effects

Time = 1

velocityDampingConstraint velocityDamping damped 0 (0%) of cells
[INFO] MatrixAssemblyU: 1341.458 [ms]
smoothSolver:  Solving for Ux, Initial residual = 0.9999999999990966, Final residual = 0.08734847740185035, No Iterations 15
smoothSolver:  Solving for Uy, Initial residual = 1, Final residual = 0.08977566807882179, No Iterations 31
smoothSolver:  Solving for Uz, Initial residual = 1, Final residual = 0.03300523306637652, No Iterations 2
[INFO] MomentumPredictor: 1466.204 [ms]
[INFO] MatrixAssemblyPI: 338.915 [ms]
[INFO] MatrixAssemblyPII: 137.288 [ms]
DICPCG:  Solving for p, Initial residual = 1, Final residual = 0.009620586672957036, No Iterations 421
[INFO] SolveP: 12790.46 [ms]
time step continuity errors : sum local = 0.003529839260579154, global = 7.90905797601702e-05, cumulative = 7.90905797601702e-05
[INFO] postSolveP: 110.692 [ms]
smoothSolver:  Solving for nuTilda, Initial residual = 0.9999999989122542, Final residual = 0.06432053209682687, No Iterations 3
[INFO] TimeStep: 17005.073 [ms]
ExecutionTime = 29.14 s  ClockTime = 30 s

--> FOAM Warning : 
    From virtual bool Foam::functionObjects::fieldSelection::checkSelection()
    in file functionObjects/fieldSelections/fieldSelection/fieldSelection.C at line 166
    Field k not found
--> FOAM Warning : 
    From virtual bool Foam::functionObjects::fieldSelection::checkSelection()
    in file functionObjects/fieldSelections/fieldSelection/fieldSelection.C at line 166
    Field gammaInt not found
--> FOAM Warning : 
    From virtual bool Foam::functionObjects::fieldSelection::checkSelection()
    in file functionObjects/fieldSelections/fieldSelection/fieldSelection.C at line 166
    Field omega not found
--> FOAM Warning : 
    From virtual bool Foam::functionObjects::fieldSelection::checkSelection()
    in file functionObjects/fieldSelections/fieldSelection/fieldSelection.C at line 166
    Field ReThetat not found
--> FOAM Warning : 
    From virtual bool Foam::functionObjects::fieldSelection::checkSelection()
    in file functionObjects/fieldSelections/fieldSelection/fieldSelection.C at line 166
    Field epsilon not found
--> FOAM Warning : 
    From virtual bool Foam::functionObjects::solverFieldSelection::updateSelection()
    in file functionObjects/fieldSelections/solverFieldSelection/solverFieldSelection.C at line 85
    Valid solver fields are: 3(U nuTilda p)Time = 2

velocityDampingConstraint velocityDamping damped 0 (0%) of cells
[INFO] MatrixAssemblyU: 1308.77 [ms]
smoothSolver:  Solving for Ux, Initial residual = 0.2130852181612483, Final residual = 0.01842252424706132, No Iterations 13
smoothSolver:  Solving for Uy, Initial residual = 0.3545475886377047, Final residual = 0.03309605164978004, No Iterations 13
smoothSolver:  Solving for Uz, Initial residual = 0.3287830836260863, Final residual = 0.02814572656515537, No Iterations 13
[INFO] MomentumPredictor: 1178.266 [ms]
[INFO] MatrixAssemblyPI: 269.717 [ms]
[INFO] MatrixAssemblyPII: 128.908 [ms]
DICPCG:  Solving for p, Initial residual = 0.2097844826643677, Final residual = 0.002084985135493142, No Iterations 340
[INFO] SolveP: 10314.915 [ms]
time step continuity errors : sum local = 0.04272690321361181, global = 0.001802102072749175, cumulative = 0.001881192652509345
[INFO] postSolveP: 71.26300000000001 [ms]
smoothSolver:  Solving for nuTilda, Initial residual = 0.4060003234522487, Final residual = 0.02533167320030007, No Iterations 1
[INFO] TimeStep: 14035.309 [ms]
ExecutionTime = 44.01 s  ClockTime = 45 s

Time = 3

velocityDampingConstraint velocityDamping damped 2492 (0.01317026724438266%) of cells
[INFO] MatrixAssemblyU: 1308.146 [ms]
smoothSolver:  Solving for Ux, Initial residual = 0.1247691122120309, Final residual = 0.01179015672474119, No Iterations 9
smoothSolver:  Solving for Uy, Initial residual = 0.2052853023974221, Final residual = 0.01969297328059073, No Iterations 10
smoothSolver:  Solving for Uz, Initial residual = 0.2189759914607355, Final residual = 0.02142896474611528, No Iterations 9
[INFO] MomentumPredictor: 908.013 [ms]
[INFO] MatrixAssemblyPI: 271.094 [ms]
[INFO] MatrixAssemblyPII: 122.204 [ms]
DICPCG:  Solving for p, Initial residual = 0.1188524137932695, Final residual = 0.0011701721105359, No Iterations 188
[INFO] SolveP: 5720.67 [ms]
time step continuity errors : sum local = 0.01305961239828099, global = -0.000906689763985673, cumulative = 0.0009745028885236724
[INFO] postSolveP: 64.643 [ms]
smoothSolver:  Solving for nuTilda, Initial residual = 0.2091260750998782, Final residual = 0.01313939614756453, No Iterations 2
[INFO] TimeStep: 9194.1 [ms]
ExecutionTime = 54.13 s  ClockTime = 55 s

Time = 4

velocityDampingConstraint velocityDamping damped 0 (0%) of cells
[INFO] MatrixAssemblyU: 1320.382 [ms]
smoothSolver:  Solving for Ux, Initial residual = 0.05385329038455298, Final residual = 0.004967905711220163, No Iterations 11
smoothSolver:  Solving for Uy, Initial residual = 0.1229141842223351, Final residual = 0.01105832975427951, No Iterations 11
smoothSolver:  Solving for Uz, Initial residual = 0.1338517391593669, Final residual = 0.01310964341372737, No Iterations 10
[INFO] MomentumPredictor: 996.074 [ms]
[INFO] MatrixAssemblyPI: 253.404 [ms]
[INFO] MatrixAssemblyPII: 119.657 [ms]
DICPCG:  Solving for p, Initial residual = 0.1358787132242373, Final residual = 0.001353697381352822, No Iterations 106
[INFO] SolveP: 3246.905 [ms]
time step continuity errors : sum local = 0.01344922704577831, global = -0.002003867663322256, cumulative = -0.001029364774798584
[INFO] postSolveP: 65.508 [ms]
smoothSolver:  Solving for nuTilda, Initial residual = 0.1247550285480496, Final residual = 0.01050486106875814, No Iterations 2
[INFO] TimeStep: 6779.765 [ms]
ExecutionTime = 61.9 s  ClockTime = 63 s

Time = 5

velocityDampingConstraint velocityDamping damped 340 (0.001796906445862803%) of cells
[INFO] MatrixAssemblyU: 1304.154 [ms]
smoothSolver:  Solving for Ux, Initial residual = 0.04392564529371607, Final residual = 0.0042046070189755, No Iterations 10
smoothSolver:  Solving for Uy, Initial residual = 0.09789935309847761, Final residual = 0.009338881119118797, No Iterations 11
smoothSolver:  Solving for Uz, Initial residual = 0.1139479526722322, Final residual = 0.01137479216966077, No Iterations 10
[INFO] MomentumPredictor: 974.2569999999999 [ms]
[INFO] MatrixAssemblyPI: 249.786 [ms]
[INFO] MatrixAssemblyPII: 122.635 [ms]
DICPCG:  Solving for p, Initial residual = 0.0975192976113617, Final residual = 0.0009564447866775032, No Iterations 230
[INFO] SolveP: 6964.435 [ms]
time step continuity errors : sum local = 0.007550187700504488, global = -0.0002321790852794318, cumulative = -0.001261543860078016
[INFO] postSolveP: 62.072 [ms]
smoothSolver:  Solving for nuTilda, Initial residual = 0.07088739804965372, Final residual = 0.004310902937278546, No Iterations 3
[INFO] TimeStep: 10483.833 [ms]
ExecutionTime = 73.34 s  ClockTime = 74 s

Time = 6

velocityDampingConstraint velocityDamping damped 0 (0%) of cells
[INFO] MatrixAssemblyU: 1289.67 [ms]
smoothSolver:  Solving for Ux, Initial residual = 0.02990968160618115, Final residual = 0.002653453038390625, No Iterations 12
smoothSolver:  Solving for Uy, Initial residual = 0.07458110565825538, Final residual = 0.006869292004138834, No Iterations 12
smoothSolver:  Solving for Uz, Initial residual = 0.08111049081624873, Final residual = 0.006924828875439404, No Iterations 12
[INFO] MomentumPredictor: 1093.236 [ms]
[INFO] MatrixAssemblyPI: 244.782 [ms]
[INFO] MatrixAssemblyPII: 129.029 [ms]
DICPCG:  Solving for p, Initial residual = 0.09714281187248326, Final residual = 0.0009528771292034335, No Iterations 140
[INFO] SolveP: 4264.044 [ms]
time step continuity errors : sum local = 0.006952076349400849, global = 0.0004938005408455542, cumulative = -0.0007677433192324615
[INFO] postSolveP: 63.846 [ms]
smoothSolver:  Solving for nuTilda, Initial residual = 0.0643226205839439, Final residual = 0.003003558598146488, No Iterations 3
[INFO] TimeStep: 7873.412 [ms]
ExecutionTime = 82.17 s  ClockTime = 83 s

Time = 7

velocityDampingConstraint velocityDamping damped 42 (0.0002219707962536403%) of cells
[INFO] MatrixAssemblyU: 1309.673 [ms]
smoothSolver:  Solving for Ux, Initial residual = 0.02721835728551948, Final residual = 0.002433664609996712, No Iterations 12
smoothSolver:  Solving for Uy, Initial residual = 0.0675193021843897, Final residual = 0.00639569774277373, No Iterations 12
smoothSolver:  Solving for Uz, Initial residual = 0.07115104338245244, Final residual = 0.006228884060807062, No Iterations 12
[INFO] MomentumPredictor: 1091.258 [ms]
[INFO] MatrixAssemblyPI: 245.952 [ms]
[INFO] MatrixAssemblyPII: 122.989 [ms]
DICPCG:  Solving for p, Initial residual = 0.08272049235788918, Final residual = 0.000812449125334817, No Iterations 120
[INFO] SolveP: 3650.508 [ms]
time step continuity errors : sum local = 0.005961418196650155, global = 0.0006121330112558265, cumulative = -0.000155610307976635
[INFO] postSolveP: 61.226 [ms]
smoothSolver:  Solving for nuTilda, Initial residual = 0.04910376218944557, Final residual = 0.003230601816071335, No Iterations 3
[INFO] TimeStep: 7287.997 [ms]
ExecutionTime = 90.40000000000001 s  ClockTime = 92 s

Time = 8

velocityDampingConstraint velocityDamping damped 0 (0%) of cells
[INFO] MatrixAssemblyU: 1308.245 [ms]
smoothSolver:  Solving for Ux, Initial residual = 0.02311268678601905, Final residual = 0.002140712973103703, No Iterations 12
smoothSolver:  Solving for Uy, Initial residual = 0.05994164904460246, Final residual = 0.005889380004238247, No Iterations 12
smoothSolver:  Solving for Uz, Initial residual = 0.061805288913671, Final residual = 0.005594237244710383, No Iterations 12
[INFO] MomentumPredictor: 1089.957 [ms]
[INFO] MatrixAssemblyPI: 245.046 [ms]
[INFO] MatrixAssemblyPII: 124.002 [ms]
DICPCG:  Solving for p, Initial residual = 0.07493896514301246, Final residual = 0.000748872358740895, No Iterations 115
[INFO] SolveP: 3516.859 [ms]
time step continuity errors : sum local = 0.005584100471069949, global = 0.000761545796615458, cumulative = 0.000605935488638823
[INFO] postSolveP: 63.175 [ms]
smoothSolver:  Solving for nuTilda, Initial residual = 0.06543327477507521, Final residual = 0.005860737453011164, No Iterations 2
[INFO] TimeStep: 7129.481 [ms]
ExecutionTime = 98.52 s  ClockTime = 100 s

Time = 9

velocityDampingConstraint velocityDamping damped 0 (0%) of cells
[INFO] MatrixAssemblyU: 1308.392 [ms]
smoothSolver:  Solving for Ux, Initial residual = 0.02035723034161594, Final residual = 0.001902467683760493, No Iterations 12
smoothSolver:  Solving for Uy, Initial residual = 0.05420016475570278, Final residual = 0.005409408162854295, No Iterations 12
smoothSolver:  Solving for Uz, Initial residual = 0.05509239698950468, Final residual = 0.005126202118287939, No Iterations 12
[INFO] MomentumPredictor: 1094.304 [ms]
[INFO] MatrixAssemblyPI: 245.838 [ms]
[INFO] MatrixAssemblyPII: 119.799 [ms]
DICPCG:  Solving for p, Initial residual = 0.06841240659470406, Final residual = 0.0006774426015864112, No Iterations 114
[INFO] SolveP: 3478.353 [ms]
time step continuity errors : sum local = 0.005125239973956674, global = 0.0009586439318799921, cumulative = 0.001564579420518815
[INFO] postSolveP: 62.904 [ms]
smoothSolver:  Solving for nuTilda, Initial residual = 0.04413188977087951, Final residual = 0.003202208893576872, No Iterations 3
[INFO] TimeStep: 7102.995 [ms]
ExecutionTime = 106.58 s  ClockTime = 108 s

Time = 10

velocityDampingConstraint velocityDamping damped 0 (0%) of cells
[INFO] MatrixAssemblyU: 1282.145 [ms]
smoothSolver:  Solving for Ux, Initial residual = 0.0183465918197269, Final residual = 0.001727730419098875, No Iterations 12
smoothSolver:  Solving for Uy, Initial residual = 0.05005914086178804, Final residual = 0.004991160369401855, No Iterations 12
smoothSolver:  Solving for Uz, Initial residual = 0.05047157654257066, Final residual = 0.004763554795819987, No Iterations 12
[INFO] MomentumPredictor: 1089.307 [ms]
[INFO] MatrixAssemblyPI: 244.402 [ms]
[INFO] MatrixAssemblyPII: 118.519 [ms]
DICPCG:  Solving for p, Initial residual = 0.06216819816069809, Final residual = 0.0006104007988121442, No Iterations 123
[INFO] SolveP: 3765.6 [ms]
time step continuity errors : sum local = 0.004605654016991503, global = 0.001186878828029376, cumulative = 0.002751458248548191
[INFO] postSolveP: 60.376 [ms]
smoothSolver:  Solving for nuTilda, Initial residual = 0.06973283586508146, Final residual = 0.00548898446329803, No Iterations 2
[INFO] TimeStep: 7318.129 [ms]
ExecutionTime = 114.87 s  ClockTime = 116 s

Time = 11

velocityDampingConstraint velocityDamping damped 0 (0%) of cells
[INFO] MatrixAssemblyU: 1277.662 [ms]
smoothSolver:  Solving for Ux, Initial residual = 0.01670018282842224, Final residual = 0.001606104159647949, No Iterations 12
smoothSolver:  Solving for Uy, Initial residual = 0.04729001912613588, Final residual = 0.004684580453339148, No Iterations 12
smoothSolver:  Solving for Uz, Initial residual = 0.04726537521188798, Final residual = 0.004497260224821768, No Iterations 12
[INFO] MomentumPredictor: 1087.415 [ms]
[INFO] MatrixAssemblyPI: 244.249 [ms]
[INFO] MatrixAssemblyPII: 123.96 [ms]
DICPCG:  Solving for p, Initial residual = 0.05741087086882848, Final residual = 0.0005708426509990875, No Iterations 228
[INFO] SolveP: 6907.268 [ms]
time step continuity errors : sum local = 0.004336838894323548, global = 8.313197630436747e-05, cumulative = 0.002834590224852559
[INFO] postSolveP: 62.721 [ms]
smoothSolver:  Solving for nuTilda, Initial residual = 0.03913646818307058, Final residual = 0.003026945699075117, No Iterations 3
[INFO] TimeStep: 10467.534 [ms]
ExecutionTime = 126.28 s  ClockTime = 128 s

Time = 12

velocityDampingConstraint velocityDamping damped 0 (0%) of cells
[INFO] MatrixAssemblyU: 1236.979 [ms]
smoothSolver:  Solving for Ux, Initial residual = 0.01558426527640857, Final residual = 0.001515874372700234, No Iterations 12
smoothSolver:  Solving for Uy, Initial residual = 0.04554036891077839, Final residual = 0.004481124114857523, No Iterations 12
smoothSolver:  Solving for Uz, Initial residual = 0.04516019063581519, Final residual = 0.004310317989963736, No Iterations 12
[INFO] MomentumPredictor: 1086.016 [ms]
[INFO] MatrixAssemblyPI: 245.423 [ms]
[INFO] MatrixAssemblyPII: 119.289 [ms]
DICPCG:  Solving for p, Initial residual = 0.05073765864750204, Final residual = 0.000502903545698978, No Iterations 105
[INFO] SolveP: 3201.117 [ms]
time step continuity errors : sum local = 0.004050579545362949, global = -0.0005960354277038475, cumulative = 0.002238554797148711
[INFO] postSolveP: 62.86 [ms]
smoothSolver:  Solving for nuTilda, Initial residual = 0.06551540302072087, Final residual = 0.005101169409781533, No Iterations 2
[INFO] TimeStep: 6719.799 [ms]
ExecutionTime = 133.93 s  ClockTime = 135 s

Time = 13

velocityDampingConstraint velocityDamping damped 0 (0%) of cells
[INFO] MatrixAssemblyU: 1280.649 [ms]
smoothSolver:  Solving for Ux, Initial residual = 0.01448840691327563, Final residual = 0.001440748750770464, No Iterations 12
smoothSolver:  Solving for Uy, Initial residual = 0.04338516704954683, Final residual = 0.004253970956054902, No Iterations 12
smoothSolver:  Solving for Uz, Initial residual = 0.04294334509005917, Final residual = 0.004130851443759062, No Iterations 12
[INFO] MomentumPredictor: 1087.322 [ms]
[INFO] MatrixAssemblyPI: 243.79 [ms]
[INFO] MatrixAssemblyPII: 123.805 [ms]
DICPCG:  Solving for p, Initial residual = 0.04844943900219922, Final residual = 0.0004757871136174804, No Iterations 116
[INFO] SolveP: 3531.957 [ms]
time step continuity errors : sum local = 0.003792626161308244, global = -0.000856033508288104, cumulative = 0.001382521288860607
[INFO] postSolveP: 61.675 [ms]
smoothSolver:  Solving for nuTilda, Initial residual = 0.03470959081676694, Final residual = 0.002829031534798701, No Iterations 3
[INFO] TimeStep: 7114.989 [ms]
ExecutionTime = 142.03 s  ClockTime = 144 s

Time = 14

velocityDampingConstraint velocityDamping damped 0 (0%) of cells
[INFO] MatrixAssemblyU: 1279.252 [ms]
smoothSolver:  Solving for Ux, Initial residual = 0.01366640712132907, Final residual = 0.001171501795599542, No Iterations 13
smoothSolver:  Solving for Uy, Initial residual = 0.0415974778899465, Final residual = 0.004085045699499135, No Iterations 12
smoothSolver:  Solving for Uz, Initial residual = 0.04194981020260168, Final residual = 0.004047507200601772, No Iterations 12
[INFO] MomentumPredictor: 1114.431 [ms]
[INFO] MatrixAssemblyPI: 247.544 [ms]
[INFO] MatrixAssemblyPII: 111.894 [ms]
DICPCG:  Solving for p, Initial residual = 0.04656658808189633, Final residual = 0.0004563739723493587, No Iterations 219
[INFO] SolveP: 6623.796 [ms]
time step continuity errors : sum local = 0.003611812543215375, global = -0.0002365146633333691, cumulative = 0.001146006625527238
[INFO] postSolveP: 61.054 [ms]
smoothSolver:  Solving for nuTilda, Initial residual = 0.05814632875461528, Final residual = 0.004801228588586152, No Iterations 2
[INFO] TimeStep: 10229.901 [ms]
ExecutionTime = 153.22 s  ClockTime = 155 s

Time = 15

velocityDampingConstraint velocityDamping damped 0 (0%) of cells
[INFO] MatrixAssemblyU: 1262.061 [ms]
smoothSolver:  Solving for Ux, Initial residual = 0.01292623567032927, Final residual = 0.001114154796483411, No Iterations 13
smoothSolver:  Solving for Uy, Initial residual = 0.04046139860246039, Final residual = 0.003990840428993071, No Iterations 12
smoothSolver:  Solving for Uz, Initial residual = 0.04191401142288947, Final residual = 0.004060612600250629, No Iterations 12
[INFO] MomentumPredictor: 1114.359 [ms]
[INFO] MatrixAssemblyPI: 243.931 [ms]
[INFO] MatrixAssemblyPII: 125.884 [ms]
DICPCG:  Solving for p, Initial residual = 0.04661409368478091, Final residual = 0.0004631114969761733, No Iterations 90
[INFO] SolveP: 2749.555 [ms]
time step continuity errors : sum local = 0.003552829490007766, global = 0.0003355974570567741, cumulative = 0.001481604082584012
[INFO] postSolveP: 62.341 [ms]
smoothSolver:  Solving for nuTilda, Initial residual = 0.03137015061027378, Final residual = 0.002662517562522106, No Iterations 3
[INFO] TimeStep: 6324.673 [ms]
ExecutionTime = 160.53 s  ClockTime = 162 s

Time = 16

velocityDampingConstraint velocityDamping damped 0 (0%) of cells
[INFO] MatrixAssemblyU: 1275.811 [ms]
smoothSolver:  Solving for Ux, Initial residual = 0.01223964820568547, Final residual = 0.001057141765563295, No Iterations 13
smoothSolver:  Solving for Uy, Initial residual = 0.03927244330979659, Final residual = 0.003904414653299635, No Iterations 12
smoothSolver:  Solving for Uz, Initial residual = 0.04160400783822518, Final residual = 0.004053222941610473, No Iterations 12
[INFO] MomentumPredictor: 1119.192 [ms]
[INFO] MatrixAssemblyPI: 244.064 [ms]
[INFO] MatrixAssemblyPII: 122.097 [ms]
DICPCG:  Solving for p, Initial residual = 0.04546456498501404, Final residual = 0.000453462217888542, No Iterations 115
[INFO] SolveP: 3502.987 [ms]
time step continuity errors : sum local = 0.003477704199833723, global = 0.0007971671240319129, cumulative = 0.002278771206615925
[INFO] postSolveP: 65.78100000000001 [ms]
smoothSolver:  Solving for nuTilda, Initial residual = 0.05171099986460138, Final residual = 0.004553329213893629, No Iterations 2
[INFO] TimeStep: 7071.764 [ms]
ExecutionTime = 168.54 s  ClockTime = 170 s

Time = 17

velocityDampingConstraint velocityDamping damped 0 (0%) of cells
[INFO] MatrixAssemblyU: 1252.871 [ms]
smoothSolver:  Solving for Ux, Initial residual = 0.01159872920993293, Final residual = 0.001007788283133015, No Iterations 13
smoothSolver:  Solving for Uy, Initial residual = 0.03870383254506786, Final residual = 0.003867348773439, No Iterations 12
smoothSolver:  Solving for Uz, Initial residual = 0.04146540772125517, Final residual = 0.004041367763376417, No Iterations 12
[INFO] MomentumPredictor: 1114.829 [ms]
[INFO] MatrixAssemblyPI: 242.577 [ms]
[INFO] MatrixAssemblyPII: 126.602 [ms]
DICPCG:  Solving for p, Initial residual = 0.04481819941694658, Final residual = 0.0004370262325178038, No Iterations 226
[INFO] SolveP: 6864.907 [ms]
time step continuity errors : sum local = 0.003381281261396941, global = -5.921186219399761e-05, cumulative = 0.002219559344421927
[INFO] postSolveP: 71.849 [ms]
smoothSolver:  Solving for nuTilda, Initial residual = 0.02891627987828983, Final residual = 0.002513388703440516, No Iterations 3
[INFO] TimeStep: 10449.65 [ms]
ExecutionTime = 179.89 s  ClockTime = 182 s

Time = 18

velocityDampingConstraint velocityDamping damped 0 (0%) of cells
[INFO] MatrixAssemblyU: 1281.132 [ms]
smoothSolver:  Solving for Ux, Initial residual = 0.01122523988095496, Final residual = 0.0009666439069276494, No Iterations 13
smoothSolver:  Solving for Uy, Initial residual = 0.03893718114163925, Final residual = 0.003321937840832547, No Iterations 13
smoothSolver:  Solving for Uz, Initial residual = 0.04198211348315653, Final residual = 0.004078724617747221, No Iterations 12
[INFO] MomentumPredictor: 1138.268 [ms]
[INFO] MatrixAssemblyPI: 243.181 [ms]
[INFO] MatrixAssemblyPII: 128.942 [ms]
DICPCG:  Solving for p, Initial residual = 0.04261825261967602, Final residual = 0.0004260274807497754, No Iterations 103
[INFO] SolveP: 3154.08 [ms]
time step continuity errors : sum local = 0.003481956013524612, global = -0.0004245579320154367, cumulative = 0.001795001412406491
[INFO] postSolveP: 73.834 [ms]
smoothSolver:  Solving for nuTilda, Initial residual = 0.04637789926951628, Final residual = 0.004302404773069421, No Iterations 2
[INFO] TimeStep: 6777.268 [ms]
ExecutionTime = 187.64 s  ClockTime = 189 s

Time = 19

velocityDampingConstraint velocityDamping damped 0 (0%) of cells
[INFO] MatrixAssemblyU: 1285.37 [ms]
smoothSolver:  Solving for Ux, Initial residual = 0.01084037111293909, Final residual = 0.0009356703845488897, No Iterations 13
smoothSolver:  Solving for Uy, Initial residual = 0.03898659666956825, Final residual = 0.003334402184098788, No Iterations 13
smoothSolver:  Solving for Uz, Initial residual = 0.04256000494486085, Final residual = 0.004115647336824837, No Iterations 12
[INFO] MomentumPredictor: 1137.529 [ms]
[INFO] MatrixAssemblyPI: 244.292 [ms]
[INFO] MatrixAssemblyPII: 120.572 [ms]
DICPCG:  Solving for p, Initial residual = 0.04319162130129458, Final residual = 0.0004225700010172982, No Iterations 115
[INFO] SolveP: 3528.464 [ms]
time step continuity errors : sum local = 0.003446418807470782, global = -0.00054322180799161, cumulative = 0.001251779604414881
[INFO] postSolveP: 59.477 [ms]
smoothSolver:  Solving for nuTilda, Initial residual = 0.02698560458133583, Final residual = 0.0023642506939808, No Iterations 3
[INFO] TimeStep: 7168.75 [ms]
ExecutionTime = 195.78 s  ClockTime = 198 s

Time = 20

velocityDampingConstraint velocityDamping damped 0 (0%) of cells
[INFO] MatrixAssemblyU: 1261.078 [ms]
smoothSolver:  Solving for Ux, Initial residual = 0.01068447425594845, Final residual = 0.0009164964868644598, No Iterations 13
smoothSolver:  Solving for Uy, Initial residual = 0.03936725794043815, Final residual = 0.003928368621890738, No Iterations 12
smoothSolver:  Solving for Uz, Initial residual = 0.04312134360546149, Final residual = 0.0041379422148995, No Iterations 12
[INFO] MomentumPredictor: 1112.041 [ms]
[INFO] MatrixAssemblyPI: 244.407 [ms]
[INFO] MatrixAssemblyPII: 122.165 [ms]
DICPCG:  Solving for p, Initial residual = 0.04338326690868755, Final residual = 0.0004252183196395001, No Iterations 126
[INFO] SolveP: 3823.305 [ms]
time step continuity errors : sum local = 0.003476312778753124, global = -0.0005570183520964254, cumulative = 0.0006947612523184553
[INFO] postSolveP: 61.858 [ms]
smoothSolver:  Solving for nuTilda, Initial residual = 0.04184341821139455, Final residual = 0.004048779731732821, No Iterations 2
[INFO] TimeStep: 7393.209 [ms]
ExecutionTime = 204.13 s  ClockTime = 206 s

Time = 21

velocityDampingConstraint velocityDamping damped 0 (0%) of cells
[INFO] MatrixAssemblyU: 1269.081 [ms]
smoothSolver:  Solving for Ux, Initial residual = 0.01049336390629215, Final residual = 0.0009033436600359827, No Iterations 13
smoothSolver:  Solving for Uy, Initial residual = 0.03995238710428305, Final residual = 0.003972947936149107, No Iterations 12
smoothSolver:  Solving for Uz, Initial residual = 0.04342026801803033, Final residual = 0.004133402145803091, No Iterations 12
[INFO] MomentumPredictor: 1111.958 [ms]
[INFO] MatrixAssemblyPI: 243.921 [ms]
[INFO] MatrixAssemblyPII: 124.135 [ms]
DICPCG:  Solving for p, Initial residual = 0.04366181266785791, Final residual = 0.0004280684940783447, No Iterations 126
[INFO] SolveP: 3839.774 [ms]
time step continuity errors : sum local = 0.003523156892929943, global = -0.0004896079016681629, cumulative = 0.0002051533506502925
[INFO] postSolveP: 61.197 [ms]
smoothSolver:  Solving for nuTilda, Initial residual = 0.02519326191548241, Final residual = 0.002219460013477443, No Iterations 3
[INFO] TimeStep: 7429.35 [ms]
ExecutionTime = 212.53 s  ClockTime = 214 s

Time = 22

velocityDampingConstraint velocityDamping damped 0 (0%) of cells
[INFO] MatrixAssemblyU: 1264.968 [ms]
smoothSolver:  Solving for Ux, Initial residual = 0.01047228318977781, Final residual = 0.0008923686037201002, No Iterations 13
smoothSolver:  Solving for Uy, Initial residual = 0.04056938886934437, Final residual = 0.003997448443832637, No Iterations 12
smoothSolver:  Solving for Uz, Initial residual = 0.04333722294414021, Final residual = 0.004095291531918003, No Iterations 12
[INFO] MomentumPredictor: 1127.516 [ms]
[INFO] MatrixAssemblyPI: 246.815 [ms]
[INFO] MatrixAssemblyPII: 117.64 [ms]
DICPCG:  Solving for p, Initial residual = 0.04367778202878187, Final residual = 0.0004252320782821907, No Iterations 120
[INFO] SolveP: 3666.078 [ms]
time step continuity errors : sum local = 0.003522450893329467, global = -0.0002626306655617933, cumulative = -5.74773149115008e-05
[INFO] postSolveP: 62.272 [ms]
smoothSolver:  Solving for nuTilda, Initial residual = 0.03797891527157027, Final residual = 0.002019243516056777, No Iterations 3
[INFO] TimeStep: 7275.849 [ms]
ExecutionTime = 220.77 s  ClockTime = 223 s

Time = 23

velocityDampingConstraint velocityDamping damped 0 (0%) of cells
[INFO] MatrixAssemblyU: 1273.109 [ms]
smoothSolver:  Solving for Ux, Initial residual = 0.01035546354284986, Final residual = 0.0008839330867157522, No Iterations 13
smoothSolver:  Solving for Uy, Initial residual = 0.0411529338190022, Final residual = 0.004002559980057614, No Iterations 12
smoothSolver:  Solving for Uz, Initial residual = 0.04295082009421967, Final residual = 0.004019081245506059, No Iterations 12
[INFO] MomentumPredictor: 1117.114 [ms]
[INFO] MatrixAssemblyPI: 244.281 [ms]
[INFO] MatrixAssemblyPII: 126.713 [ms]
DICPCG:  Solving for p, Initial residual = 0.0436190607365526, Final residual = 0.0004335832819440273, No Iterations 119
[INFO] SolveP: 3626.807 [ms]
time step continuity errors : sum local = 0.003627317547775153, global = 8.230745521912921e-05, cumulative = 2.483014030762841e-05
[INFO] postSolveP: 69.357 [ms]
smoothSolver:  Solving for nuTilda, Initial residual = 0.02337748304582955, Final residual = 0.002088597365059922, No Iterations 3
[INFO] TimeStep: 7234.023 [ms]
ExecutionTime = 228.96 s  ClockTime = 231 s

Time = 24

velocityDampingConstraint velocityDamping damped 0 (0%) of cells
[INFO] MatrixAssemblyU: 1269.909 [ms]
smoothSolver:  Solving for Ux, Initial residual = 0.01039286709526755, Final residual = 0.001031837166362612, No Iterations 12
smoothSolver:  Solving for Uy, Initial residual = 0.04184018782726132, Final residual = 0.004040274321152981, No Iterations 12
smoothSolver:  Solving for Uz, Initial residual = 0.04255482055748258, Final residual = 0.003944552064480978, No Iterations 12
[INFO] MomentumPredictor: 1091.932 [ms]
[INFO] MatrixAssemblyPI: 245.301 [ms]
[INFO] MatrixAssemblyPII: 123.626 [ms]
DICPCG:  Solving for p, Initial residual = 0.04337513033936673, Final residual = 0.00042602485604945, No Iterations 121
[INFO] SolveP: 3689.255 [ms]
time step continuity errors : sum local = 0.003609596466877387, global = 0.0004453130812575039, cumulative = 0.0004701432215651323
[INFO] postSolveP: 73.373 [ms]
smoothSolver:  Solving for nuTilda, Initial residual = 0.03447931822579512, Final residual = 0.001910448956531219, No Iterations 3
[INFO] TimeStep: 7269.142 [ms]
ExecutionTime = 237.18 s  ClockTime = 239 s

Time = 25

velocityDampingConstraint velocityDamping damped 0 (0%) of cells
[INFO] MatrixAssemblyU: 1284.663 [ms]
smoothSolver:  Solving for Ux, Initial residual = 0.01034298395927417, Final residual = 0.0008831042313585087, No Iterations 13
smoothSolver:  Solving for Uy, Initial residual = 0.04264725105831007, Final residual = 0.004130879559043509, No Iterations 12
smoothSolver:  Solving for Uz, Initial residual = 0.04227017446688087, Final residual = 0.003906176750622878, No Iterations 12
[INFO] MomentumPredictor: 1131.492 [ms]
[INFO] MatrixAssemblyPI: 245.509 [ms]
[INFO] MatrixAssemblyPII: 126.481 [ms]
DICPCG:  Solving for p, Initial residual = 0.0427717275192965, Final residual = 0.0004238374362923961, No Iterations 130
[INFO] SolveP: 3961.892 [ms]
time step continuity errors : sum local = 0.003647612444624674, global = 0.0007544876036953175, cumulative = 0.00122463082526045
[INFO] postSolveP: 66.736 [ms]
smoothSolver:  Solving for nuTilda, Initial residual = 0.02152695354271656, Final residual = 0.001957678707840271, No Iterations 3
[INFO] TimeStep: 7599.153 [ms]
ExecutionTime = 245.73 s  ClockTime = 248 s

Time = 26

velocityDampingConstraint velocityDamping damped 0 (0%) of cells
[INFO] MatrixAssemblyU: 1258.02 [ms]
smoothSolver:  Solving for Ux, Initial residual = 0.01041789933657747, Final residual = 0.001035994475124847, No Iterations 12
smoothSolver:  Solving for Uy, Initial residual = 0.04361499749980664, Final residual = 0.004284395592346145, No Iterations 12
smoothSolver:  Solving for Uz, Initial residual = 0.04228566953001771, Final residual = 0.003947766042622612, No Iterations 12
[INFO] MomentumPredictor: 1088.545 [ms]
[INFO] MatrixAssemblyPI: 244.093 [ms]
[INFO] MatrixAssemblyPII: 124.42 [ms]
DICPCG:  Solving for p, Initial residual = 0.04227554029111169, Final residual = 0.0004213170738126796, No Iterations 228
[INFO] SolveP: 6945.406 [ms]
time step continuity errors : sum local = 0.003687011315259139, global = -2.910523597115478e-06, cumulative = 0.001221720301663334
[INFO] postSolveP: 68.55200000000001 [ms]
smoothSolver:  Solving for nuTilda, Initial residual = 0.03150893481996801, Final residual = 0.001804643219792208, No Iterations 3
[INFO] TimeStep: 10524.548 [ms]
ExecutionTime = 257.18 s  ClockTime = 259 s

Time = 27

velocityDampingConstraint velocityDamping damped 0 (0%) of cells
[INFO] MatrixAssemblyU: 1247.458 [ms]
smoothSolver:  Solving for Ux, Initial residual = 0.01043924757213895, Final residual = 0.001036685442930956, No Iterations 12
smoothSolver:  Solving for Uy, Initial residual = 0.0449225157733215, Final residual = 0.004453753700841992, No Iterations 12
smoothSolver:  Solving for Uz, Initial residual = 0.04271150463648696, Final residual = 0.004021812009860802, No Iterations 12
[INFO] MomentumPredictor: 1090.36 [ms]
[INFO] MatrixAssemblyPI: 243.553 [ms]
[INFO] MatrixAssemblyPII: 125.881 [ms]
DICPCG:  Solving for p, Initial residual = 0.04118648804452867, Final residual = 0.0004044650241402132, No Iterations 101
[INFO] SolveP: 3099.252 [ms]
time step continuity errors : sum local = 0.003705906950424459, global = -0.0002588627067995917, cumulative = 0.0009628575948637428
[INFO] postSolveP: 60.624 [ms]
smoothSolver:  Solving for nuTilda, Initial residual = 0.01983483854795052, Final residual = 0.001832137323813041, No Iterations 3
[INFO] TimeStep: 6652.8 [ms]
ExecutionTime = 264.8 s  ClockTime = 267 s

Time = 28

velocityDampingConstraint velocityDamping damped 0 (0%) of cells
[INFO] MatrixAssemblyU: 1268.781 [ms]
smoothSolver:  Solving for Ux, Initial residual = 0.01054405821533469, Final residual = 0.001039583036381641, No Iterations 12
smoothSolver:  Solving for Uy, Initial residual = 0.04607040741066221, Final residual = 0.003949639258605301, No Iterations 13
smoothSolver:  Solving for Uz, Initial residual = 0.04365510306862502, Final residual = 0.004138508328275322, No Iterations 12
[INFO] MomentumPredictor: 1113.745 [ms]
[INFO] MatrixAssemblyPI: 244.12 [ms]
[INFO] MatrixAssemblyPII: 124.939 [ms]
DICPCG:  Solving for p, Initial residual = 0.04251966139362574, Final residual = 0.0004215625247714101, No Iterations 102
[INFO] SolveP: 3125.56 [ms]
time step continuity errors : sum local = 0.003872315074365209, global = -0.000299774396758007, cumulative = 0.0006630831981057359
[INFO] postSolveP: 67.443 [ms]
smoothSolver:  Solving for nuTilda, Initial residual = 0.02897234039236328, Final residual = 0.001697736731157907, No Iterations 3
[INFO] TimeStep: 6717.7 [ms]
ExecutionTime = 272.47 s  ClockTime = 275 s

Time = 29

velocityDampingConstraint velocityDamping damped 0 (0%) of cells
[INFO] MatrixAssemblyU: 1254.478 [ms]
smoothSolver:  Solving for Ux, Initial residual = 0.01058078047009347, Final residual = 0.001042380650465448, No Iterations 12
smoothSolver:  Solving for Uy, Initial residual = 0.04760067779719399, Final residual = 0.004087003115360408, No Iterations 13
smoothSolver:  Solving for Uz, Initial residual = 0.04501132893757064, Final residual = 0.004278525016768519, No Iterations 12
[INFO] MomentumPredictor: 1114.87 [ms]
[INFO] MatrixAssemblyPI: 244.662 [ms]
[INFO] MatrixAssemblyPII: 126.441 [ms]
DICPCG:  Solving for p, Initial residual = 0.04361397021156431, Final residual = 0.0004277435187556335, No Iterations 107
[INFO] SolveP: 3247.285 [ms]
time step continuity errors : sum local = 0.003957820485011223, global = -0.0002658346999711795, cumulative = 0.0003972484981345564
[INFO] postSolveP: 69.004 [ms]
smoothSolver:  Solving for nuTilda, Initial residual = 0.01834709231352784, Final residual = 0.00170873329470126, No Iterations 3
[INFO] TimeStep: 6840.381 [ms]
ExecutionTime = 280.28 s  ClockTime = 283 s

Time = 30

velocityDampingConstraint velocityDamping damped 0 (0%) of cells
[INFO] MatrixAssemblyU: 1281.462 [ms]
smoothSolver:  Solving for Ux, Initial residual = 0.01076955817707344, Final residual = 0.001048690610170099, No Iterations 12
smoothSolver:  Solving for Uy, Initial residual = 0.04966238782216163, Final residual = 0.004237240177762524, No Iterations 13
smoothSolver:  Solving for Uz, Initial residual = 0.04659498255061548, Final residual = 0.004414636874144978, No Iterations 12
[INFO] MomentumPredictor: 1115.378 [ms]
[INFO] MatrixAssemblyPI: 244.463 [ms]
[INFO] MatrixAssemblyPII: 125.196 [ms]
DICPCG:  Solving for p, Initial residual = 0.04462557916562506, Final residual = 0.0004400717056384663, No Iterations 99
[INFO] SolveP: 3042.356 [ms]
time step continuity errors : sum local = 0.004117290907987792, global = -0.0002366107247439607, cumulative = 0.0001606377733905957
[INFO] postSolveP: 65.101 [ms]
smoothSolver:  Solving for nuTilda, Initial residual = 0.02678091514062041, Final residual = 0.001590718486780238, No Iterations 3
[INFO] TimeStep: 6648.936 [ms]
ExecutionTime = 287.87 s  ClockTime = 290 s

Time = 31

velocityDampingConstraint velocityDamping damped 0 (0%) of cells
[INFO] MatrixAssemblyU: 1284.805 [ms]
smoothSolver:  Solving for Ux, Initial residual = 0.01082998021402849, Final residual = 0.001054953905331425, No Iterations 12
smoothSolver:  Solving for Uy, Initial residual = 0.05197103135551417, Final residual = 0.005180659772058322, No Iterations 12
smoothSolver:  Solving for Uz, Initial residual = 0.04828193145588013, Final residual = 0.004572572024485999, No Iterations 12
[INFO] MomentumPredictor: 1087.691 [ms]
[INFO] MatrixAssemblyPI: 244.751 [ms]
[INFO] MatrixAssemblyPII: 127.406 [ms]
DICPCG:  Solving for p, Initial residual = 0.04596501812645193, Final residual = 0.0004540635543083467, No Iterations 97
[INFO] SolveP: 2966.85 [ms]
time step continuity errors : sum local = 0.00429233828694143, global = -0.0002052831170099467, cumulative = -4.464534361935099e-05
[INFO] postSolveP: 66.831 [ms]
smoothSolver:  Solving for nuTilda, Initial residual = 0.01708285114378104, Final residual = 0.001590469871840064, No Iterations 3
[INFO] TimeStep: 6552.456 [ms]
ExecutionTime = 295.39 s  ClockTime = 298 s

Time = 32

velocityDampingConstraint velocityDamping damped 0 (0%) of cells
[INFO] MatrixAssemblyU: 1254.503 [ms]
smoothSolver:  Solving for Ux, Initial residual = 0.010955083159056, Final residual = 0.001062026337112847, No Iterations 12
smoothSolver:  Solving for Uy, Initial residual = 0.05437381792099587, Final residual = 0.005418956055246842, No Iterations 12
smoothSolver:  Solving for Uz, Initial residual = 0.04985616423879349, Final residual = 0.004776873709730213, No Iterations 12
[INFO] MomentumPredictor: 1091.269 [ms]
[INFO] MatrixAssemblyPI: 245.429 [ms]
[INFO] MatrixAssemblyPII: 119.659 [ms]
DICPCG:  Solving for p, Initial residual = 0.0476186277518039, Final residual = 0.0004698611119271788, No Iterations 95
[INFO] SolveP: 2912.303 [ms]
time step continuity errors : sum local = 0.004484769564223104, global = -0.0001666700064972152, cumulative = -0.0002113153501165662
[INFO] postSolveP: 66.866 [ms]
smoothSolver:  Solving for nuTilda, Initial residual = 0.0248779760385878, Final residual = 0.001488765744363951, No Iterations 3
[INFO] TimeStep: 6478.961 [ms]
ExecutionTime = 302.82 s  ClockTime = 305 s

Time = 33

velocityDampingConstraint velocityDamping damped 0 (0%) of cells
[INFO] MatrixAssemblyU: 1262.294 [ms]
smoothSolver:  Solving for Ux, Initial residual = 0.01092067916300635, Final residual = 0.001068839775546447, No Iterations 12
smoothSolver:  Solving for Uy, Initial residual = 0.05666104898515269, Final residual = 0.005640357715898187, No Iterations 12
smoothSolver:  Solving for Uz, Initial residual = 0.0520056059157537, Final residual = 0.005047783877794338, No Iterations 12
[INFO] MomentumPredictor: 1091.566 [ms]
[INFO] MatrixAssemblyPI: 243.804 [ms]
[INFO] MatrixAssemblyPII: 130.817 [ms]
DICPCG:  Solving for p, Initial residual = 0.04957067624493491, Final residual = 0.0004858333761819125, No Iterations 93
[INFO] SolveP: 2838.431 [ms]
time step continuity errors : sum local = 0.004678305729455169, global = -9.67588464882755e-05, cumulative = -0.0003080741966048417
[INFO] postSolveP: 64.41200000000001 [ms]
smoothSolver:  Solving for nuTilda, Initial residual = 0.01599149337725348, Final residual = 0.001481422032550088, No Iterations 3
[INFO] TimeStep: 6402.773 [ms]
ExecutionTime = 310.17 s  ClockTime = 313 s

Time = 34

velocityDampingConstraint velocityDamping damped 0 (0%) of cells
[INFO] MatrixAssemblyU: 1257.806 [ms]
smoothSolver:  Solving for Ux, Initial residual = 0.01105233124666766, Final residual = 0.001079586711545248, No Iterations 12
smoothSolver:  Solving for Uy, Initial residual = 0.05914623915890846, Final residual = 0.005888588366085887, No Iterations 12
smoothSolver:  Solving for Uz, Initial residual = 0.0545051828809539, Final residual = 0.005343879107156758, No Iterations 12
[INFO] MomentumPredictor: 1098.998 [ms]
[INFO] MatrixAssemblyPI: 244.314 [ms]
[INFO] MatrixAssemblyPII: 118.212 [ms]
DICPCG:  Solving for p, Initial residual = 0.05185726498335564, Final residual = 0.000516807303437579, No Iterations 92
[INFO] SolveP: 2814.286 [ms]
time step continuity errors : sum local = 0.005018907241715703, global = -1.362058174182887e-05, cumulative = -0.0003216947783466705
[INFO] postSolveP: 67.755 [ms]
smoothSolver:  Solving for nuTilda, Initial residual = 0.02323510083676778, Final residual = 0.001394952364061298, No Iterations 3
[INFO] TimeStep: 6389.123 [ms]
ExecutionTime = 317.52 s  ClockTime = 320 s

Time = 35

velocityDampingConstraint velocityDamping damped 0 (0%) of cells
[INFO] MatrixAssemblyU: 1247.818 [ms]
smoothSolver:  Solving for Ux, Initial residual = 0.01111567052129702, Final residual = 0.001092742819162544, No Iterations 12
smoothSolver:  Solving for Uy, Initial residual = 0.06166531475360099, Final residual = 0.005257052014597838, No Iterations 13
smoothSolver:  Solving for Uz, Initial residual = 0.05700220383729601, Final residual = 0.005614945275363071, No Iterations 12
[INFO] MomentumPredictor: 1115.635 [ms]
[INFO] MatrixAssemblyPI: 243.273 [ms]
[INFO] MatrixAssemblyPII: 124.687 [ms]
DICPCG:  Solving for p, Initial residual = 0.05381429168337869, Final residual = 0.0005236850221678311, No Iterations 93
[INFO] SolveP: 2850.548 [ms]
time step continuity errors : sum local = 0.00513105588971905, global = 7.017691364198189e-05, cumulative = -0.0002515178647046886
[INFO] postSolveP: 73.676 [ms]
smoothSolver:  Solving for nuTilda, Initial residual = 0.01502372443245091, Final residual = 0.001384008267327362, No Iterations 3
[INFO] TimeStep: 6438.234 [ms]
ExecutionTime = 324.93 s  ClockTime = 327 s

Time = 36

velocityDampingConstraint velocityDamping damped 0 (0%) of cells
[INFO] MatrixAssemblyU: 1275.684 [ms]
smoothSolver:  Solving for Ux, Initial residual = 0.01139375436927065, Final residual = 0.001114605521705358, No Iterations 12
smoothSolver:  Solving for Uy, Initial residual = 0.0636532191028544, Final residual = 0.005512180213963986, No Iterations 13
smoothSolver:  Solving for Uz, Initial residual = 0.05962757000116389, Final residual = 0.00587600537200714, No Iterations 12
[INFO] MomentumPredictor: 1110.122 [ms]
[INFO] MatrixAssemblyPI: 243.758 [ms]
[INFO] MatrixAssemblyPII: 122.635 [ms]
DICPCG:  Solving for p, Initial residual = 0.0552992842727053, Final residual = 0.0005506470896768328, No Iterations 92
[INFO] SolveP: 2808.33 [ms]
time step continuity errors : sum local = 0.00543318739092806, global = 0.0001279262168948275, cumulative = -0.0001235916478098611
[INFO] postSolveP: 67.682 [ms]
smoothSolver:  Solving for nuTilda, Initial residual = 0.02182001081111526, Final residual = 0.001309081523617235, No Iterations 3
[INFO] TimeStep: 6406.534 [ms]
ExecutionTime = 332.29 s  ClockTime = 335 s

Time = 37

velocityDampingConstraint velocityDamping damped 0 (0%) of cells
[INFO] MatrixAssemblyU: 1266.357 [ms]
smoothSolver:  Solving for Ux, Initial residual = 0.01160608007091144, Final residual = 0.001139992751805204, No Iterations 12
smoothSolver:  Solving for Uy, Initial residual = 0.06545290837535785, Final residual = 0.005749873012367398, No Iterations 13
smoothSolver:  Solving for Uz, Initial residual = 0.0622192696125216, Final residual = 0.006096564674506857, No Iterations 12
[INFO] MomentumPredictor: 1112.898 [ms]
[INFO] MatrixAssemblyPI: 243.81 [ms]
[INFO] MatrixAssemblyPII: 126.985 [ms]
DICPCG:  Solving for p, Initial residual = 0.05711906565150856, Final residual = 0.0005657651914395894, No Iterations 91
[INFO] SolveP: 2794.97 [ms]
time step continuity errors : sum local = 0.005621293235280759, global = 0.0001642268873215927, cumulative = 4.063523951173157e-05
[INFO] postSolveP: 59.917 [ms]
smoothSolver:  Solving for nuTilda, Initial residual = 0.01421388923891886, Final residual = 0.001296924179735553, No Iterations 3
[INFO] TimeStep: 6392.907 [ms]
ExecutionTime = 339.64 s  ClockTime = 342 s

Time = 38

velocityDampingConstraint velocityDamping damped 0 (0%) of cells
[INFO] MatrixAssemblyU: 1262.753 [ms]
smoothSolver:  Solving for Ux, Initial residual = 0.01192206759327026, Final residual = 0.001162776846396226, No Iterations 12
smoothSolver:  Solving for Uy, Initial residual = 0.06702953952817323, Final residual = 0.005934359270734047, No Iterations 13
smoothSolver:  Solving for Uz, Initial residual = 0.06497456637844419, Final residual = 0.006295061077181923, No Iterations 12
[INFO] MomentumPredictor: 1115.284 [ms]
[INFO] MatrixAssemblyPI: 243.755 [ms]
[INFO] MatrixAssemblyPII: 126.017 [ms]
DICPCG:  Solving for p, Initial residual = 0.05779880928972723, Final residual = 0.0005705360059652313, No Iterations 89
[INFO] SolveP: 2725.437 [ms]
time step continuity errors : sum local = 0.005698925978189171, global = 0.000163278624730303, cumulative = 0.0002039138642420346
[INFO] postSolveP: 71.48699999999999 [ms]
smoothSolver:  Solving for nuTilda, Initial residual = 0.02059699593059, Final residual = 0.001233238040694411, No Iterations 3
[INFO] TimeStep: 6319.614 [ms]
ExecutionTime = 346.9 s  ClockTime = 350 s

Time = 39

velocityDampingConstraint velocityDamping damped 0 (0%) of cells
[INFO] MatrixAssemblyU: 1270.12 [ms]
smoothSolver:  Solving for Ux, Initial residual = 0.0120144318413468, Final residual = 0.001175774250860035, No Iterations 12
smoothSolver:  Solving for Uy, Initial residual = 0.06853525403516118, Final residual = 0.006106835889928893, No Iterations 13
smoothSolver:  Solving for Uz, Initial residual = 0.06748812345553534, Final residual = 0.006514812126180868, No Iterations 12
[INFO] MomentumPredictor: 1124.666 [ms]
[INFO] MatrixAssemblyPI: 244.176 [ms]
[INFO] MatrixAssemblyPII: 125.865 [ms]
DICPCG:  Solving for p, Initial residual = 0.0578538461268966, Final residual = 0.000577609483240083, No Iterations 88
[INFO] SolveP: 2695.029 [ms]
time step continuity errors : sum local = 0.005794662176942724, global = 0.0001240138286499008, cumulative = 0.0003279276928919353
[INFO] postSolveP: 66.791 [ms]
smoothSolver:  Solving for nuTilda, Initial residual = 0.01355581702019755, Final residual = 0.00122285531879642, No Iterations 3
[INFO] TimeStep: 6296.927 [ms]
ExecutionTime = 354.15 s  ClockTime = 357 s

Time = 40

velocityDampingConstraint velocityDamping damped 0 (0%) of cells
[INFO] MatrixAssemblyU: 1264.587 [ms]
smoothSolver:  Solving for Ux, Initial residual = 0.01215968339950563, Final residual = 0.001187078221213291, No Iterations 12
smoothSolver:  Solving for Uy, Initial residual = 0.0697725580211649, Final residual = 0.006275045937348468, No Iterations 13
smoothSolver:  Solving for Uz, Initial residual = 0.06935562514943736, Final residual = 0.006751733545947141, No Iterations 12
[INFO] MomentumPredictor: 1114.348 [ms]
[INFO] MatrixAssemblyPI: 244.439 [ms]
[INFO] MatrixAssemblyPII: 123.802 [ms]
DICPCG:  Solving for p, Initial residual = 0.05801343428626844, Final residual = 0.000576166298904552, No Iterations 85
[INFO] SolveP: 2606.642 [ms]
time step continuity errors : sum local = 0.005792373146865933, global = 5.504387797000518e-05, cumulative = 0.0003829715708619405
[INFO] postSolveP: 64.97 [ms]
smoothSolver:  Solving for nuTilda, Initial residual = 0.01949555055871731, Final residual = 0.001169506869422522, No Iterations 3
[INFO] TimeStep: 6186.818 [ms]
ExecutionTime = 361.29 s  ClockTime = 364 s

Time = 41

velocityDampingConstraint velocityDamping damped 0 (0%) of cells
[INFO] MatrixAssemblyU: 1245.42 [ms]
smoothSolver:  Solving for Ux, Initial residual = 0.0120943848409441, Final residual = 0.001196698626694465, No Iterations 12
smoothSolver:  Solving for Uy, Initial residual = 0.07046386189850437, Final residual = 0.006441629788021538, No Iterations 13
smoothSolver:  Solving for Uz, Initial residual = 0.07051936762925043, Final residual = 0.006951437436042547, No Iterations 12
[INFO] MomentumPredictor: 1110.383 [ms]
[INFO] MatrixAssemblyPI: 243.229 [ms]
[INFO] MatrixAssemblyPII: 124.355 [ms]
DICPCG:  Solving for p, Initial residual = 0.05754704684579948, Final residual = 0.0005672561148785264, No Iterations 84
[INFO] SolveP: 2588.066 [ms]
time step continuity errors : sum local = 0.005710256189657948, global = -2.738719012619951e-05, cumulative = 0.000355584380735741
[INFO] postSolveP: 68.474 [ms]
smoothSolver:  Solving for nuTilda, Initial residual = 0.01295948453733931, Final residual = 0.001160929893361045, No Iterations 3
[INFO] TimeStep: 6162.152 [ms]
ExecutionTime = 368.4 s  ClockTime = 371 s

Time = 42

velocityDampingConstraint velocityDamping damped 0 (0%) of cells
[INFO] MatrixAssemblyU: 1252.307 [ms]
smoothSolver:  Solving for Ux, Initial residual = 0.01212700991248782, Final residual = 0.001204042885849733, No Iterations 12
smoothSolver:  Solving for Uy, Initial residual = 0.07101627636502765, Final residual = 0.006633949773892667, No Iterations 13
smoothSolver:  Solving for Uz, Initial residual = 0.07111207324523282, Final residual = 0.006061328618405339, No Iterations 13
[INFO] MomentumPredictor: 1140.976 [ms]
[INFO] MatrixAssemblyPI: 244.075 [ms]
[INFO] MatrixAssemblyPII: 121.747 [ms]
DICPCG:  Solving for p, Initial residual = 0.05718778940866854, Final residual = 0.0005648539940604785, No Iterations 81
[INFO] SolveP: 2498.904 [ms]
time step continuity errors : sum local = 0.00568708958683323, global = -0.0001460569076183542, cumulative = 0.0002095274731173868
[INFO] postSolveP: 65.71299999999999 [ms]
smoothSolver:  Solving for nuTilda, Initial residual = 0.01848176134564016, Final residual = 0.001114180924705769, No Iterations 3
[INFO] TimeStep: 6103.229 [ms]
ExecutionTime = 375.47 s  ClockTime = 378 s

Time = 43

velocityDampingConstraint velocityDamping damped 0 (0%) of cells
[INFO] MatrixAssemblyU: 1251.789 [ms]
smoothSolver:  Solving for Ux, Initial residual = 0.01202496383611426, Final residual = 0.001031212316962118, No Iterations 13
smoothSolver:  Solving for Uy, Initial residual = 0.07173741127918601, Final residual = 0.006854423217279103, No Iterations 13
smoothSolver:  Solving for Uz, Initial residual = 0.07077897031025486, Final residual = 0.00614492548550375, No Iterations 13
[INFO] MomentumPredictor: 1163.094 [ms]
[INFO] MatrixAssemblyPI: 242.887 [ms]
[INFO] MatrixAssemblyPII: 131.867 [ms]
DICPCG:  Solving for p, Initial residual = 0.05644465527937134, Final residual = 0.0005525783864083918, No Iterations 84
[INFO] SolveP: 2571.226 [ms]
time step continuity errors : sum local = 0.005552264090639282, global = -0.0003093246100099629, cumulative = -9.979713689257604e-05
[INFO] postSolveP: 67.274 [ms]
smoothSolver:  Solving for nuTilda, Initial residual = 0.0123702431086438, Final residual = 0.001104559482475096, No Iterations 3
[INFO] TimeStep: 6202.591 [ms]
ExecutionTime = 382.63 s  ClockTime = 385 s

Time = 44

velocityDampingConstraint velocityDamping damped 0 (0%) of cells
[INFO] MatrixAssemblyU: 1257.493 [ms]
smoothSolver:  Solving for Ux, Initial residual = 0.01203405994268018, Final residual = 0.001039857731120164, No Iterations 13
smoothSolver:  Solving for Uy, Initial residual = 0.07225693322910337, Final residual = 0.00706417370472453, No Iterations 13
smoothSolver:  Solving for Uz, Initial residual = 0.07011670790505932, Final residual = 0.006214847202121074, No Iterations 13
[INFO] MomentumPredictor: 1171.592 [ms]
[INFO] MatrixAssemblyPI: 245.351 [ms]
[INFO] MatrixAssemblyPII: 123.962 [ms]
DICPCG:  Solving for p, Initial residual = 0.05566219673693566, Final residual = 0.0005521135197176491, No Iterations 85
[INFO] SolveP: 2599.32 [ms]
time step continuity errors : sum local = 0.005510502819488563, global = -0.0005301904353561498, cumulative = -0.0006299875722487259
[INFO] postSolveP: 66.005 [ms]
smoothSolver:  Solving for nuTilda, Initial residual = 0.01753940507684242, Final residual = 0.001061815704677042, No Iterations 3
[INFO] TimeStep: 6254.147 [ms]
ExecutionTime = 389.81 s  ClockTime = 393 s

Time = 45

velocityDampingConstraint velocityDamping damped 0 (0%) of cells
[INFO] MatrixAssemblyU: 1243.659 [ms]
smoothSolver:  Solving for Ux, Initial residual = 0.01188485201787808, Final residual = 0.001048544639868995, No Iterations 13
smoothSolver:  Solving for Uy, Initial residual = 0.07233371713930155, Final residual = 0.007192510798227343, No Iterations 13
smoothSolver:  Solving for Uz, Initial residual = 0.06923784396598148, Final residual = 0.006266686989216669, No Iterations 13
[INFO] MomentumPredictor: 1163.212 [ms]
[INFO] MatrixAssemblyPI: 243.741 [ms]
[INFO] MatrixAssemblyPII: 125.081 [ms]
DICPCG:  Solving for p, Initial residual = 0.05511306922197007, Final residual = 0.000548134633274557, No Iterations 90
[INFO] SolveP: 2751.83 [ms]
time step continuity errors : sum local = 0.005413152791034557, global = -0.0007392200893054123, cumulative = -0.001369207661554138
[INFO] postSolveP: 64.504 [ms]
smoothSolver:  Solving for nuTilda, Initial residual = 0.01180964707421621, Final residual = 0.001050716357277687, No Iterations 3
[INFO] TimeStep: 6370.717 [ms]
ExecutionTime = 397.14 s  ClockTime = 400 s

Time = 46

velocityDampingConstraint velocityDamping damped 0 (0%) of cells
[INFO] MatrixAssemblyU: 1254.296 [ms]
smoothSolver:  Solving for Ux, Initial residual = 0.01175644719540213, Final residual = 0.001051983746457793, No Iterations 13
smoothSolver:  Solving for Uy, Initial residual = 0.0722570466473042, Final residual = 0.006190807651293525, No Iterations 14
smoothSolver:  Solving for Uz, Initial residual = 0.0680240233153076, Final residual = 0.006318780088101872, No Iterations 13
[INFO] MomentumPredictor: 1185.304 [ms]
[INFO] MatrixAssemblyPI: 245.971 [ms]
[INFO] MatrixAssemblyPII: 125.619 [ms]
DICPCG:  Solving for p, Initial residual = 0.05448145570334809, Final residual = 0.0005422278019369131, No Iterations 106
[INFO] SolveP: 3232.852 [ms]
time step continuity errors : sum local = 0.005306503179285856, global = -0.0008803833481150932, cumulative = -0.002249591009669231
[INFO] postSolveP: 67.995 [ms]
smoothSolver:  Solving for nuTilda, Initial residual = 0.01665620426040557, Final residual = 0.001013118680065649, No Iterations 3
[INFO] TimeStep: 6879.183 [ms]
ExecutionTime = 404.95 s  ClockTime = 408 s

Time = 47

velocityDampingConstraint velocityDamping damped 0 (0%) of cells
[INFO] MatrixAssemblyU: 1256.127 [ms]
smoothSolver:  Solving for Ux, Initial residual = 0.01152954396466487, Final residual = 0.001057847250807075, No Iterations 13
smoothSolver:  Solving for Uy, Initial residual = 0.07193311853125313, Final residual = 0.006188484429724779, No Iterations 14
smoothSolver:  Solving for Uz, Initial residual = 0.06670008454057282, Final residual = 0.006354875241458832, No Iterations 13
[INFO] MomentumPredictor: 1184.378 [ms]
[INFO] MatrixAssemblyPI: 243.747 [ms]
[INFO] MatrixAssemblyPII: 130.849 [ms]
DICPCG:  Solving for p, Initial residual = 0.05373371989917374, Final residual = 0.0005352100404481697, No Iterations 93
[INFO] SolveP: 2857.803 [ms]
time step continuity errors : sum local = 0.005196335795425559, global = -0.001018125379951782, cumulative = -0.003267716389621013
[INFO] postSolveP: 67.292 [ms]
smoothSolver:  Solving for nuTilda, Initial residual = 0.011289514214743, Final residual = 0.00100336101411135, No Iterations 3
[INFO] TimeStep: 6525.168 [ms]
ExecutionTime = 412.43 s  ClockTime = 415 s

Time = 48

velocityDampingConstraint velocityDamping damped 0 (0%) of cells
[INFO] MatrixAssemblyU: 1247.679 [ms]
smoothSolver:  Solving for Ux, Initial residual = 0.01150842665667018, Final residual = 0.001064663022332225, No Iterations 13
smoothSolver:  Solving for Uy, Initial residual = 0.07140733538452627, Final residual = 0.006164019363844619, No Iterations 14
smoothSolver:  Solving for Uz, Initial residual = 0.06545244960512958, Final residual = 0.00633982778217754, No Iterations 13
[INFO] MomentumPredictor: 1189.788 [ms]
[INFO] MatrixAssemblyPI: 242.653 [ms]
[INFO] MatrixAssemblyPII: 122.725 [ms]
DICPCG:  Solving for p, Initial residual = 0.05297730724685917, Final residual = 0.0005160622507634144, No Iterations 224
[INFO] SolveP: 6781.502 [ms]
time step continuity errors : sum local = 0.004970581626138656, global = -0.0003512388795782847, cumulative = -0.003618955269199298
[INFO] postSolveP: 61.968 [ms]
smoothSolver:  Solving for nuTilda, Initial residual = 0.01587404086843464, Final residual = 0.0009724075200741289, No Iterations 3
[INFO] TimeStep: 10431.871 [ms]
ExecutionTime = 423.78 s  ClockTime = 427 s

Time = 49

velocityDampingConstraint velocityDamping damped 0 (0%) of cells
[INFO] MatrixAssemblyU: 1254.719 [ms]
smoothSolver:  Solving for Ux, Initial residual = 0.01161427758902452, Final residual = 0.00107189123567787, No Iterations 13
smoothSolver:  Solving for Uy, Initial residual = 0.07112484455401052, Final residual = 0.0061526129757212, No Iterations 14
smoothSolver:  Solving for Uz, Initial residual = 0.06496784049864182, Final residual = 0.006344095660226747, No Iterations 13
[INFO] MomentumPredictor: 1191.753 [ms]
[INFO] MatrixAssemblyPI: 243.9 [ms]
[INFO] MatrixAssemblyPII: 127.172 [ms]
DICPCG:  Solving for p, Initial residual = 0.05459180960357318, Final residual = 0.0005416465497355965, No Iterations 87
[INFO] SolveP: 2661.438 [ms]
time step continuity errors : sum local = 0.004995220086752542, global = 0.0005674883808492484, cumulative = -0.003051466888350049
[INFO] postSolveP: 64.979 [ms]
smoothSolver:  Solving for nuTilda, Initial residual = 0.01085730558955153, Final residual = 0.0009664558343333163, No Iterations 3
[INFO] TimeStep: 6314.507 [ms]
ExecutionTime = 431.05 s  ClockTime = 434 s

Time = 50

velocityDampingConstraint velocityDamping damped 0 (0%) of cells
[INFO] MatrixAssemblyU: 1266.23 [ms]
smoothSolver:  Solving for Ux, Initial residual = 0.01158070487492361, Final residual = 0.001072371591000217, No Iterations 13
smoothSolver:  Solving for Uy, Initial residual = 0.06975772714783274, Final residual = 0.006068374688363161, No Iterations 14
smoothSolver:  Solving for Uz, Initial residual = 0.06388516285783982, Final residual = 0.006302021192709297, No Iterations 13
[INFO] MomentumPredictor: 1192.935 [ms]
[INFO] MatrixAssemblyPI: 248.705 [ms]
[INFO] MatrixAssemblyPII: 122.717 [ms]
DICPCG:  Solving for p, Initial residual = 0.054149403827159, Final residual = 0.0005338084306330547, No Iterations 103
[INFO] SolveP: 3146.203 [ms]
time step continuity errors : sum local = 0.004905578106683924, global = 0.001085251192425683, cumulative = -0.001966215695924366
[INFO] postSolveP: 64.521 [ms]
smoothSolver:  Solving for nuTilda, Initial residual = 0.01519477347744302, Final residual = 0.0009407739192072862, No Iterations 3
[INFO] TimeStep: 6828.914 [ms]
ExecutionTime = 438.81 s  ClockTime = 442 s

End

Finalising parallel run
