/*---------------------------------------------------------------------------*\
| =========                 |                                                 |
| \\      /  F ield         | OpenFOAM: The Open Source CFD Toolbox           |
|  \\    /   O peration     | Version:  2306                                  |
|   \\  /    A nd           | Website:  www.openfoam.com                      |
|    \\/     M anipulation  |                                                 |
\*---------------------------------------------------------------------------*/
Build  : c423ebec-20231012 OPENFOAM=2306 version=v2306
Arch   : "LSB;label=32;scalar=64"
Exec   : simpleFoam -parallel -case /hkfs/work/workspace/scratch/eq4036-windsorbody_setup/workspace/e53d3143bec0eb67d1622a1a39b5fb99/case
Date   : Feb 16 2024
Time   : 20:32:34
Host   : hkn0606.localdomain
PID    : 564094
I/O    : uncollated
Case   : /hkfs/work/workspace/scratch/eq4036-windsorbody_setup/workspace/e53d3143bec0eb67d1622a1a39b5fb99/case
nProcs : 4
Hosts  :
(
    (hkn0606.localdomain 4)
)
Pstream initialized with:
    floatTransfer      : false
    nProcsSimpleSum    : 0
    nonBlockingExchange: 0 (tuning: 0)
    exchange algorithm : -1
    commsType          : nonBlocking
    polling iterations : 0
trapFpe: Floating point exception trapping enabled (FOAM_SIGFPE).
fileModificationChecking : Monitoring run-time modified files using timeStampMaster (fileModificationSkew 5, maxFileModificationPolls 20)
allowSystemOperations : Allowing user-supplied system call operations

// * * * * * * * * * * * * * * * * * * * * * * * * * * * * * * * * * * * * * //
Create time

--> FOAM Warning : 
    From void* Foam::dlLibraryTable::openLibrary(const Foam::fileName&, bool)
    in file db/dynamicLibrary/dlLibraryTable/dlLibraryTable.C at line 188
    Could not load "libpetscFoam.so"
libpetscFoam.so: cannot open shared object file: No such file or directory
Create mesh for time = 0


SIMPLE: convergence criteria
    field p	 tolerance 1e-08
    field U	 tolerance 1e-08
    field k	 tolerance 1e-08
    field omega	 tolerance 1e-08
    field nuTilda	 tolerance 1e-08

Reading field p

Reading field U

Reading/calculating face flux field phi

Selecting incompressible transport model Newtonian
Selecting turbulence model type RAS
Selecting RAS turbulence model SpalartAllmaras
Selecting patchDistMethod meshWave
ft2 term: inactive
RAS
{
    RASModel        SpalartAllmaras;
    turbulence      on;
    printCoeffs     on;
    sigmaNut        0.66666;
    kappa           0.41;
    Cb1             0.1355;
    Cb2             0.622;
    Cw2             0.3;
    Cw3             2;
    Cv1             7.1;
    Cs              0.3;
    ck              0.07000000000000001;
    ft2             false;
    Ct3             1.2;
    Ct4             0.5;
}

No MRF models present

Creating finite volume options from "system/fvOptions"

Selecting finite volume options type velocityDampingConstraint
    Source: velocityDamping
    - selecting all cells
    - selected 25228544 cell(s) with volume 111.3033220647997

Starting time loop

--> FOAM Warning : 
    From bool Foam::functionObjectList::read()
    in file db/functionObjects/functionObjectList/functionObjectList.C at line 1035
    Reading "system/controlDict" at line 2 to 41
    Entry 'lref' is not a dictionary
--> FOAM Warning : 
    From bool Foam::functionObjectList::read()
    in file db/functionObjects/functionObjectList/functionObjectList.C at line 1035
    Reading "system/controlDict" at line 2 to 41
    Entry 'Aref' is not a dictionary
--> FOAM Warning : 
    From bool Foam::functionObjectList::read()
    in file db/functionObjects/functionObjectList/functionObjectList.C at line 1035
    Reading "system/controlDict" at line 2 to 41
    Entry 'yawAngle' is not a dictionary
--> FOAM Warning : 
    From bool Foam::functionObjectList::read()
    in file db/functionObjects/functionObjectList/functionObjectList.C at line 1035
    Reading "system/controlDict" at line 2 to 41
    Entry 'lDomain' is not a dictionary
--> FOAM Warning : 
    From bool Foam::functionObjectList::read()
    in file db/functionObjects/functionObjectList/functionObjectList.C at line 1035
    Reading "system/controlDict" at line 2 to 41
    Entry 'bDomain' is not a dictionary
--> FOAM Warning : 
    From bool Foam::functionObjectList::read()
    in file db/functionObjects/functionObjectList/functionObjectList.C at line 1035
    Reading "system/controlDict" at line 2 to 41
    Entry 'hDomain' is not a dictionary
--> FOAM Warning : 
    From bool Foam::functionObjectList::read()
    in file db/functionObjects/functionObjectList/functionObjectList.C at line 1035
    Reading "system/controlDict" at line 2 to 41
    Entry 'xCenter' is not a dictionary
--> FOAM Warning : 
    From bool Foam::functionObjectList::read()
    in file db/functionObjects/functionObjectList/functionObjectList.C at line 1035
    Reading "system/controlDict" at line 2 to 41
    Entry 'yCenter' is not a dictionary
--> FOAM Warning : 
    From bool Foam::functionObjectList::read()
    in file db/functionObjects/functionObjectList/functionObjectList.C at line 1035
    Reading "system/controlDict" at line 2 to 41
    Entry 'zCenter' is not a dictionary
--> FOAM Warning : 
    From bool Foam::functionObjectList::read()
    in file db/functionObjects/functionObjectList/functionObjectList.C at line 1035
    Reading "system/controlDict" at line 2 to 41
    Entry 'inletPatch' is not a dictionary
--> FOAM Warning : 
    From bool Foam::functionObjectList::read()
    in file db/functionObjects/functionObjectList/functionObjectList.C at line 1035
    Reading "system/controlDict" at line 2 to 41
    Entry 'outletPatch' is not a dictionary
--> FOAM Warning : 
    From bool Foam::functionObjectList::read()
    in file db/functionObjects/functionObjectList/functionObjectList.C at line 1035
    Reading "system/controlDict" at line 2 to 41
    Entry 'wallPatches' is not a dictionary
--> FOAM Warning : 
    From bool Foam::functionObjectList::read()
    in file db/functionObjects/functionObjectList/functionObjectList.C at line 1035
    Reading "system/controlDict" at line 2 to 41
    Entry 'forcesWallPatches' is not a dictionary
--> FOAM Warning : 
    From bool Foam::functionObjectList::read()
    in file db/functionObjects/functionObjectList/functionObjectList.C at line 1035
    Reading "system/controlDict" at line 2 to 41
    Entry 'symmPatches' is not a dictionary
--> FOAM Warning : 
    From bool Foam::functionObjectList::read()
    in file db/functionObjects/functionObjectList/functionObjectList.C at line 1035
    Reading "system/controlDict" at line 2 to 41
    Entry 'Uinf' is not a dictionary
--> FOAM Warning : 
    From bool Foam::functionObjectList::read()
    in file db/functionObjects/functionObjectList/functionObjectList.C at line 1035
    Reading "system/controlDict" at line 2 to 41
    Entry 'UinfMag' is not a dictionary
--> FOAM Warning : 
    From bool Foam::functionObjectList::read()
    in file db/functionObjects/functionObjectList/functionObjectList.C at line 1035
    Reading "system/controlDict" at line 2 to 41
    Entry 'nu' is not a dictionary
--> FOAM Warning : 
    From bool Foam::functionObjectList::read()
    in file db/functionObjects/functionObjectList/functionObjectList.C at line 1035
    Reading "system/controlDict" at line 2 to 41
    Entry 'pref' is not a dictionary
--> FOAM Warning : 
    From bool Foam::functionObjectList::read()
    in file db/functionObjects/functionObjectList/functionObjectList.C at line 1035
    Reading "system/controlDict" at line 2 to 41
    Entry 'viscRatio' is not a dictionary
--> FOAM Warning : 
    From bool Foam::functionObjectList::read()
    in file db/functionObjects/functionObjectList/functionObjectList.C at line 1035
    Reading "system/controlDict" at line 2 to 41
    Entry 'Tu' is not a dictionary
--> FOAM Warning : 
    From bool Foam::functionObjectList::read()
    in file db/functionObjects/functionObjectList/functionObjectList.C at line 1035
    Reading "system/controlDict" at line 2 to 41
    Entry 'LESturbModel' is not a dictionary
--> FOAM Warning : 
    From bool Foam::functionObjectList::read()
    in file db/functionObjects/functionObjectList/functionObjectList.C at line 1035
    Reading "system/controlDict" at line 2 to 41
    Entry 'RASturbModel' is not a dictionary
--> FOAM Warning : 
    From bool Foam::functionObjectList::read()
    in file db/functionObjects/functionObjectList/functionObjectList.C at line 1035
    Reading "system/controlDict" at line 2 to 41
    Entry 'deltaTurb' is not a dictionary
--> FOAM Warning : 
    From bool Foam::functionObjectList::read()
    in file db/functionObjects/functionObjectList/functionObjectList.C at line 1035
    Reading "system/controlDict" at line 2 to 41
    Entry 'dt' is not a dictionary
--> FOAM Warning : 
    From bool Foam::functionObjectList::read()
    in file db/functionObjects/functionObjectList/functionObjectList.C at line 1035
    Reading "system/controlDict" at line 2 to 41
    Entry 'tAvg' is not a dictionary
--> FOAM Warning : 
    From bool Foam::functionObjectList::read()
    in file db/functionObjects/functionObjectList/functionObjectList.C at line 1035
    Reading "system/controlDict" at line 2 to 41
    Entry 'tEnd' is not a dictionary
--> FOAM Warning : 
    From bool Foam::functionObjectList::read()
    in file db/functionObjects/functionObjectList/functionObjectList.C at line 1035
    Reading "system/controlDict" at line 2 to 41
    Entry 'writeInterval_' is not a dictionary
--> FOAM Warning : 
    From bool Foam::functionObjectList::read()
    in file db/functionObjects/functionObjectList/functionObjectList.C at line 1035
    Reading "system/controlDict" at line 2 to 41
    Entry 'nCores' is not a dictionary
--> FOAM Warning : 
    From bool Foam::functionObjectList::read()
    in file db/functionObjects/functionObjectList/functionObjectList.C at line 1035
    Reading "system/controlDict" at line 2 to 41
    Entry 'interpScheme' is not a dictionary
--> FOAM Warning : 
    From bool Foam::functionObjectList::read()
    in file db/functionObjects/functionObjectList/functionObjectList.C at line 1035
    Reading "system/controlDict" at line 2 to 41
    Entry 'probeField' is not a dictionary
wallShearStress wallShearStress:
    processing wall patches: 
        Windsor_Body
        CFDWT_Floor
        Windsor_Pins
        Windsor_Base
        Windsor_Body_2
        CFDWT_Floor_2
        Windsor_Pins_2
        Windsor_Base_2
        Windsor_Body_3
        CFDWT_Floor_3
        Windsor_Pins_3
        Windsor_Base_3
        Windsor_Body_4
        CFDWT_Floor_4
        Windsor_Pins_4
        Windsor_Base_4

pressure calc_cp:
    Operating mode: staticCoeff
    Not including hydrostatic effects

forceCoeffs forceCoeffsAll:
    rho: rhoInf
    Freestream density (rhoInf) set to 1
    Not including porosity effects
    magUInf: 40
    lRef   : 0.6375
    Aref   : 0.1124
    rhoInf : 1
    Selecting all coefficients
    - Drag force: Cd
    - Drag force front: Cd(f)
    - Drag force rear: Cd(r)
    - Lift force: Cl
    - Lift force front: Cl(f)
    - Lift force rear: Cl(r)
    - Pitch moment: CmPitch
    - Roll moment: CmRoll
    - Yaw moment: CmYaw
    - Side force: Cs
    - Side force front: Cs(f)
    - Side force rear: Cs(r)


forceCoeffs dragCoeffBase:
    rho: rhoInf
    Freestream density (rhoInf) set to 1
    Not including porosity effects
    magUInf: 40
    lRef   : 0.6375
    Aref   : 0.1124
    rhoInf : 1
    Selecting coefficients:
    - Drag force: Cd


Time = 1

velocityDampingConstraint velocityDamping damped 0 (0%) of cells, with max limit 300
[OGL LOG][lduLduBase.H:119] Initialising OGL
	OGL commit:  e75313f+
	Branch: dev 
	Build type: Debug
	Ginkgo version: 1.8.0 ( develop)
	Ginkgo commit: sparse-communicator
	MPI is GPU aware: 1
	Forces host buffer based communication: 0
	CPU ranks per GPU: 1
	Matrix format: Coo
	End OGL_INFO
[OGL LOG][Proc: 0]: global_index_init: 13.124 [ms]
[OGL LOG][Proc: 0]Ux_local_cols: call_init: 0.926 [ms]
[OGL LOG][Proc: 0]Ux_local_rows: call_init: 0.223 [ms]
[OGL LOG][Proc: 0]Ux_local_ldu_map: call_init: 0.612 [ms]
[OGL LOG][Proc: 0]Ux_local_coeffs: call_init: 4.994 [ms]
[OGL LOG][Proc: 0]Ux_non_local_cols: call_init: 0.016 [ms]
[OGL LOG][Proc: 0]Ux_non_local_rows: call_init: 0.008 [ms]
[OGL LOG][Proc: 0]Ux_non_local_ldu_map: call_init: 0.004 [ms]
[OGL LOG][Proc: 0]Ux_non_local_coeffs: call_init: 0.06 [ms]
[OGL LOG][Proc: 0]Ux: init_local_sparsity_pattern: 249389.354 [ms]
[OGL LOG][Proc: 0]Ux: init_non_local_sparsity_pattern: 29369.613 [ms]
[OGL LOG][Proc: 0]Ux: update_local_matrix_data: 333.908 [ms]
[OGL LOG][Proc: 0]Ux: update_non_local_matrix_data: 0.98 [ms]
[OGL LOG][Proc: 0]device_partition: call_init: 0.219 [ms]
[OGL LOG][Proc: 0]Ux_matrix: call_init: 521.033 [ms]
[OGL LOG][Proc: 0]Ux_rhs: call_init: 15.339 [ms]
[OGL LOG][Proc: 0]Ux_solution: call_init: 15.55 [ms]
[OGL LOG][Preconditioner.H:121] Generate preconditioner BJ MaxBlockSize 1
[OGL LOG][Proc: 0]Ux: init_precond: 11.753 [ms]
[OGL LOG][StoppingCriterion.H:239] Creating stopping criterion with minIter 0 frequency 1
[OGL LOG][Proc: 0]Ux: generate_solver: 0.299 [ms]
[OGL LOG][Proc: 0]Ux: solve: 328.64 [ms]
[OGL LOG][Proc: 0]Ux: copy_x_back: 25.224 [ms]
[OGL LOG][lduLduBase.H:330] 
Statistics:
	Time per iteration: 46948 [mu s]
	Time per residual norm calculation: 3318.000000 [mu s]
	Time per iteration and DOF: 1.860908 [ns]
	Retrieve results bandwidth 2.002000 [GByte/s]
[OGL LOG][Proc: 0]Ux: solve_multi_gpu: 970.0940000000001 [ms]
BJcudaGKOBiCGStab:  Solving for Ux, Initial residual = 1.000000000001999, Final residual = 0.04568485879120954, No Iterations 7
[OGL LOG][lduLduBase.H:119] Initialising OGL
	OGL commit:  e75313f+
	Branch: dev 
	Build type: Debug
	Ginkgo version: 1.8.0 ( develop)
	Ginkgo commit: sparse-communicator
	MPI is GPU aware: 1
	Forces host buffer based communication: 0
	CPU ranks per GPU: 1
	Matrix format: Coo
	End OGL_INFO
[OGL LOG][Proc: 0]: global_index_init: 0.019 [ms]
[OGL LOG][Proc: 0]Uy_local_cols: call_init: 0.038 [ms]
[OGL LOG][Proc: 0]Uy_local_rows: call_init: 0.016 [ms]
[OGL LOG][Proc: 0]Uy_local_ldu_map: call_init: 0.008 [ms]
[OGL LOG][Proc: 0]Uy_local_coeffs: call_init: 1.192 [ms]
[OGL LOG][Proc: 0]Uy_non_local_cols: call_init: 0.013 [ms]
[OGL LOG][Proc: 0]Uy_non_local_rows: call_init: 0.012 [ms]
[OGL LOG][Proc: 0]Uy_non_local_ldu_map: call_init: 0.005 [ms]
[OGL LOG][Proc: 0]Uy_non_local_coeffs: call_init: 0.01 [ms]
[OGL LOG][Proc: 0]Uy: init_local_sparsity_pattern: 249400.374 [ms]
[OGL LOG][Proc: 0]Uy: init_non_local_sparsity_pattern: 29286.217 [ms]
[OGL LOG][Proc: 0]Uy: update_local_matrix_data: 298.946 [ms]
[OGL LOG][Proc: 0]Uy: update_non_local_matrix_data: 0.917 [ms]
[OGL LOG][Proc: 0]Uy_matrix: call_init: 521.878 [ms]
[OGL LOG][Proc: 0]Uy_rhs: call_init: 15.377 [ms]
[OGL LOG][Proc: 0]Uy_solution: call_init: 16.486 [ms]
[OGL LOG][Preconditioner.H:121] Generate preconditioner BJ MaxBlockSize 1
[OGL LOG][Proc: 0]Uy: init_precond: 1.544 [ms]
[OGL LOG][StoppingCriterion.H:239] Creating stopping criterion with minIter 0 frequency 1
[OGL LOG][Proc: 0]Uy: generate_solver: 0.024 [ms]
[OGL LOG][Proc: 0]Uy: solve: 322.39 [ms]
[OGL LOG][Proc: 0]Uy: copy_x_back: 25.407 [ms]
[OGL LOG][lduLduBase.H:330] 
Statistics:
	Time per iteration: 32239 [mu s]
	Time per residual norm calculation: 175.000000 [mu s]
	Time per iteration and DOF: 1.277878 [ns]
	Retrieve results bandwidth 1.987000 [GByte/s]
[OGL LOG][Proc: 0]Uy: solve_multi_gpu: 951.718 [ms]
BJcudaGKOBiCGStab:  Solving for Uy, Initial residual = 0.9999999999998974, Final residual = 0.07725065439710992, No Iterations 10
[OGL LOG][lduLduBase.H:119] Initialising OGL
	OGL commit:  e75313f+
	Branch: dev 
	Build type: Debug
	Ginkgo version: 1.8.0 ( develop)
	Ginkgo commit: sparse-communicator
	MPI is GPU aware: 1
	Forces host buffer based communication: 0
	CPU ranks per GPU: 1
	Matrix format: Coo
	End OGL_INFO
[OGL LOG][Proc: 0]: global_index_init: 0.02 [ms]
[OGL LOG][Proc: 0]Uz_local_cols: call_init: 0.267 [ms]
[OGL LOG][Proc: 0]Uz_local_rows: call_init: 0.179 [ms]
[OGL LOG][Proc: 0]Uz_local_ldu_map: call_init: 0.368 [ms]
[OGL LOG][Proc: 0]Uz_local_coeffs: call_init: 1.436 [ms]
[OGL LOG][Proc: 0]Uz_non_local_cols: call_init: 0.051 [ms]
[OGL LOG][Proc: 0]Uz_non_local_rows: call_init: 0.188 [ms]
[OGL LOG][Proc: 0]Uz_non_local_ldu_map: call_init: 0.212 [ms]
[OGL LOG][Proc: 0]Uz_non_local_coeffs: call_init: 0.231 [ms]
[OGL LOG][Proc: 0]Uz: init_local_sparsity_pattern: 249368.642 [ms]
[OGL LOG][Proc: 0]Uz: init_non_local_sparsity_pattern: 29351.302 [ms]
[OGL LOG][Proc: 0]Uz: update_local_matrix_data: 306.853 [ms]
[OGL LOG][Proc: 0]Uz: update_non_local_matrix_data: 0.859 [ms]
[OGL LOG][Proc: 0]Uz_matrix: call_init: 521.101 [ms]
[OGL LOG][Proc: 0]Uz_rhs: call_init: 15.563 [ms]
[OGL LOG][Proc: 0]Uz_solution: call_init: 15.525 [ms]
[OGL LOG][Preconditioner.H:121] Generate preconditioner BJ MaxBlockSize 1
[OGL LOG][Proc: 0]Uz: init_precond: 1.551 [ms]
[OGL LOG][StoppingCriterion.H:239] Creating stopping criterion with minIter 0 frequency 1
[OGL LOG][Proc: 0]Uz: generate_solver: 0.024 [ms]
[OGL LOG][Proc: 0]Uz: solve: 281.972 [ms]
[OGL LOG][Proc: 0]Uz: copy_x_back: 25.101 [ms]
[OGL LOG][lduLduBase.H:330] 
Statistics:
	Time per iteration: 281972 [mu s]
	Time per residual norm calculation: 266.000000 [mu s]
	Time per iteration and DOF: 11.176705 [ns]
	Retrieve results bandwidth 2.012000 [GByte/s]
[OGL LOG][Proc: 0]Uz: solve_multi_gpu: 914.663 [ms]
BJcudaGKOBiCGStab:  Solving for Uz, Initial residual = 1.00000000000004, Final residual = 0.07317246117889999, No Iterations 1
[OGL LOG][lduLduBase.H:119] Initialising OGL
	OGL commit:  e75313f+
	Branch: dev 
	Build type: Debug
	Ginkgo version: 1.8.0 ( develop)
	Ginkgo commit: sparse-communicator
	MPI is GPU aware: 1
	Forces host buffer based communication: 0
	CPU ranks per GPU: 1
	Matrix format: Coo
	End OGL_INFO
[OGL LOG][Proc: 0]: global_index_init: 0.02 [ms]
[OGL LOG][Proc: 0]p_local_cols: call_init: 0.036 [ms]
[OGL LOG][Proc: 0]p_local_rows: call_init: 0.01 [ms]
[OGL LOG][Proc: 0]p_local_ldu_map: call_init: 0.027 [ms]
[OGL LOG][Proc: 0]p_local_coeffs: call_init: 1.147 [ms]
[OGL LOG][Proc: 0]p_non_local_cols: call_init: 0.013 [ms]
[OGL LOG][Proc: 0]p_non_local_rows: call_init: 0.004 [ms]
[OGL LOG][Proc: 0]p_non_local_ldu_map: call_init: 0.004 [ms]
[OGL LOG][Proc: 0]p_non_local_coeffs: call_init: 0.008999999999999999 [ms]
[OGL LOG][Proc: 0]p: init_local_sparsity_pattern: 249413.691 [ms]
[OGL LOG][Proc: 0]p: init_non_local_sparsity_pattern: 30205.678 [ms]
[OGL LOG][Proc: 0]p: update_local_matrix_data: 230.433 [ms]
[OGL LOG][Proc: 0]p: update_non_local_matrix_data: 0.978 [ms]
[OGL LOG][Proc: 0]p_matrix: call_init: 522.14 [ms]
[OGL LOG][Proc: 0]p_rhs: call_init: 15.662 [ms]
[OGL LOG][Proc: 0]p_solution: call_init: 15.707 [ms]
[OGL LOG][Preconditioner.H:271] Generate preconditioner GISAI SparsityPower 1
[OGL LOG][Proc: 0]p: init_precond: 477.369 [ms]
[OGL LOG][StoppingCriterion.H:239] Creating stopping criterion with minIter 0 frequency 1
[OGL LOG][Proc: 0]p: generate_solver: 0.108 [ms]
[OGL LOG][Proc: 0]p: solve: 3206.972 [ms]
[OGL LOG][Proc: 0]p: copy_x_back: 25.475 [ms]
[OGL LOG][lduLduBase.H:330] 
Statistics:
	Time per iteration: 3203 [mu s]
	Time per residual norm calculation: 167.000000 [mu s]
	Time per iteration and DOF: 0.126959 [ns]
	Retrieve results bandwidth 1.982000 [GByte/s]
[OGL LOG][Proc: 0]p: solve_multi_gpu: 4313.073 [ms]
GISAIcudaGKOCG:  Solving for p, Initial residual = 1.000000000001335, Final residual = 1.000000000860187, No Iterations 1001
time step continuity errors : sum local = 0.3623636662748681, global = -0.0009982058245896037, cumulative = -0.0009982058245896037
[OGL LOG][lduLduBase.H:119] Initialising OGL
	OGL commit:  e75313f+
	Branch: dev 
	Build type: Debug
	Ginkgo version: 1.8.0 ( develop)
	Ginkgo commit: sparse-communicator
	MPI is GPU aware: 1
	Forces host buffer based communication: 0
	CPU ranks per GPU: 1
	Matrix format: Coo
	End OGL_INFO
[OGL LOG][Proc: 0]: global_index_init: 0.027 [ms]
[OGL LOG][Proc: 0]nuTilda_local_cols: call_init: 0.479 [ms]
[OGL LOG][Proc: 0]nuTilda_local_rows: call_init: 0.179 [ms]
[OGL LOG][Proc: 0]nuTilda_local_ldu_map: call_init: 0.151 [ms]
[OGL LOG][Proc: 0]nuTilda_local_coeffs: call_init: 1.776 [ms]
[OGL LOG][Proc: 0]nuTilda_non_local_cols: call_init: 0.455 [ms]
[OGL LOG][Proc: 0]nuTilda_non_local_rows: call_init: 0.164 [ms]
[OGL LOG][Proc: 0]nuTilda_non_local_ldu_map: call_init: 0.348 [ms]
[OGL LOG][Proc: 0]nuTilda_non_local_coeffs: call_init: 0.185 [ms]
[OGL LOG][Proc: 0]nuTilda: init_local_sparsity_pattern: 251806.543 [ms]
[OGL LOG][Proc: 0]nuTilda: init_non_local_sparsity_pattern: 27855.964 [ms]
[OGL LOG][Proc: 0]nuTilda: update_local_matrix_data: 299.301 [ms]
[OGL LOG][Proc: 0]nuTilda: update_non_local_matrix_data: 1.055 [ms]
[OGL LOG][Proc: 0]nuTilda_matrix: call_init: 521.552 [ms]
[OGL LOG][Proc: 0]nuTilda_rhs: call_init: 15.574 [ms]
[OGL LOG][Proc: 0]nuTilda_solution: call_init: 17.264 [ms]
[OGL LOG][Preconditioner.H:121] Generate preconditioner BJ MaxBlockSize 1
[OGL LOG][Proc: 0]nuTilda: init_precond: 1.597 [ms]
[OGL LOG][StoppingCriterion.H:239] Creating stopping criterion with minIter 0 frequency 1
[OGL LOG][Proc: 0]nuTilda: generate_solver: 0.023 [ms]
[OGL LOG][Proc: 0]nuTilda: solve: 292.573 [ms]
[OGL LOG][Proc: 0]nuTilda: copy_x_back: 25.741 [ms]
[OGL LOG][lduLduBase.H:330] 
Statistics:
	Time per iteration: 97524 [mu s]
	Time per residual norm calculation: 177.000000 [mu s]
	Time per iteration and DOF: 3.865621 [ns]
	Retrieve results bandwidth 1.962000 [GByte/s]
[OGL LOG][Proc: 0]nuTilda: solve_multi_gpu: 921.955 [ms]
BJcudaGKOBiCGStab:  Solving for nuTilda, Initial residual = 0.9999999998835473, Final residual = 0.06240469350372915, No Iterations 3
ExecutionTime = 1471.66 s  ClockTime = 1474 s

--> FOAM Warning : 
    From virtual bool Foam::functionObjects::fieldSelection::checkSelection()
    in file functionObjects/fieldSelections/fieldSelection/fieldSelection.C at line 166
    Field k not found
--> FOAM Warning : 
    From virtual bool Foam::functionObjects::fieldSelection::checkSelection()
    in file functionObjects/fieldSelections/fieldSelection/fieldSelection.C at line 166
    Field gammaInt not found
--> FOAM Warning : 
    From virtual bool Foam::functionObjects::fieldSelection::checkSelection()
    in file functionObjects/fieldSelections/fieldSelection/fieldSelection.C at line 166
    Field omega not found
--> FOAM Warning : 
    From virtual bool Foam::functionObjects::fieldSelection::checkSelection()
    in file functionObjects/fieldSelections/fieldSelection/fieldSelection.C at line 166
    Field ReThetat not found
--> FOAM Warning : 
    From virtual bool Foam::functionObjects::fieldSelection::checkSelection()
    in file functionObjects/fieldSelections/fieldSelection/fieldSelection.C at line 166
    Field epsilon not found
--> FOAM Warning : 
    From virtual bool Foam::functionObjects::solverFieldSelection::updateSelection()
    in file functionObjects/fieldSelections/solverFieldSelection/solverFieldSelection.C at line 85
    Valid solver fields are: 3(U nuTilda p)Time = 2

velocityDampingConstraint velocityDamping damped 0 (0%) of cells, with max limit 300
[OGL LOG][Proc: 0]: global_index_init: 0.031 [ms]
[OGL LOG][Proc: 0]Ux_local_coeffs: call_update: 0.001 [ms]
[OGL LOG][Proc: 0]Ux_non_local_coeffs: call_update: 0 [ms]
[OGL LOG][Proc: 0]Ux: update_local_matrix_data: 316.187 [ms]
[OGL LOG][Proc: 0]Ux: update_non_local_matrix_data: 0.906 [ms]
[OGL LOG][Proc: 0]Ux_matrix: call_update: 3.994 [ms]
[OGL LOG][Proc: 0]Ux_rhs: call_update: 15.524 [ms]
[OGL LOG][Preconditioner.H:121] Generate preconditioner BJ MaxBlockSize 1
[OGL LOG][Proc: 0]Ux: init_precond: 2.227 [ms]
[OGL LOG][StoppingCriterion.H:239] Creating stopping criterion with minIter 8 frequency 1
[OGL LOG][Proc: 0]Ux: generate_solver: 0.018 [ms]
[OGL LOG][Proc: 0]Ux: solve: 311.905 [ms]
[OGL LOG][Proc: 0]Ux: copy_x_back: 25.4 [ms]
[OGL LOG][lduLduBase.H:330] 
Statistics:
	Time per iteration: 34656 [mu s]
	Time per residual norm calculation: 265.000000 [mu s]
	Time per iteration and DOF: 1.373682 [ns]
	Retrieve results bandwidth 1.988000 [GByte/s]
[OGL LOG][Proc: 0]Ux: solve_multi_gpu: 362.483 [ms]
BJcudaGKOBiCGStab:  Solving for Ux, Initial residual = 0.05669444537678955, Final residual = 0.002641885518864388, No Iterations 9
[OGL LOG][Proc: 0]: global_index_init: 0.019 [ms]
[OGL LOG][Proc: 0]Uy_local_coeffs: call_update: 0 [ms]
[OGL LOG][Proc: 0]Uy_non_local_coeffs: call_update: 0 [ms]
[OGL LOG][Proc: 0]Uy: update_local_matrix_data: 314.65 [ms]
[OGL LOG][Proc: 0]Uy: update_non_local_matrix_data: 0.883 [ms]
[OGL LOG][Proc: 0]Uy_matrix: call_update: 3.959 [ms]
[OGL LOG][Proc: 0]Uy_rhs: call_update: 15.678 [ms]
[OGL LOG][Preconditioner.H:121] Generate preconditioner BJ MaxBlockSize 1
[OGL LOG][Proc: 0]Uy: init_precond: 2.419 [ms]
[OGL LOG][StoppingCriterion.H:239] Creating stopping criterion with minIter 12 frequency 1
[OGL LOG][Proc: 0]Uy: generate_solver: 0.014 [ms]
[OGL LOG][Proc: 0]Uy: solve: 301.172 [ms]
[OGL LOG][Proc: 0]Uy: copy_x_back: 24.926 [ms]
[OGL LOG][lduLduBase.H:330] 
Statistics:
	Time per iteration: 50195 [mu s]
	Time per residual norm calculation: 192.000000 [mu s]
	Time per iteration and DOF: 1.989611 [ns]
	Retrieve results bandwidth 2.026000 [GByte/s]
[OGL LOG][Proc: 0]Uy: solve_multi_gpu: 351.438 [ms]
BJcudaGKOBiCGStab:  Solving for Uy, Initial residual = 0.07962583669371949, Final residual = 0.006065416915648885, No Iterations 6
[OGL LOG][Proc: 0]: global_index_init: 0.022 [ms]
[OGL LOG][Proc: 0]Uz_local_coeffs: call_update: 0 [ms]
[OGL LOG][Proc: 0]Uz_non_local_coeffs: call_update: 0 [ms]
[OGL LOG][Proc: 0]Uz: update_local_matrix_data: 315.734 [ms]
[OGL LOG][Proc: 0]Uz: update_non_local_matrix_data: 0.88 [ms]
[OGL LOG][Proc: 0]Uz_matrix: call_update: 4.1 [ms]
[OGL LOG][Proc: 0]Uz_rhs: call_update: 15.587 [ms]
[OGL LOG][Preconditioner.H:121] Generate preconditioner BJ MaxBlockSize 1
[OGL LOG][Proc: 0]Uz: init_precond: 2.121 [ms]
[OGL LOG][StoppingCriterion.H:239] Creating stopping criterion with minIter 1 frequency 1
[OGL LOG][Proc: 0]Uz: generate_solver: 0.015 [ms]
[OGL LOG][Proc: 0]Uz: solve: 286.545 [ms]
[OGL LOG][Proc: 0]Uz: copy_x_back: 25.544 [ms]
[OGL LOG][lduLduBase.H:330] 
Statistics:
	Time per iteration: 143272 [mu s]
	Time per residual norm calculation: 263.000000 [mu s]
	Time per iteration and DOF: 5.678964 [ns]
	Retrieve results bandwidth 1.977000 [GByte/s]
[OGL LOG][Proc: 0]Uz: solve_multi_gpu: 337.26 [ms]
BJcudaGKOBiCGStab:  Solving for Uz, Initial residual = 0.9149929498831803, Final residual = 0.09110319613357139, No Iterations 2
[OGL LOG][Proc: 0]: global_index_init: 0.018 [ms]
[OGL LOG][Proc: 0]p_local_coeffs: call_update: 0 [ms]
[OGL LOG][Proc: 0]p_non_local_coeffs: call_update: 0 [ms]
[OGL LOG][Proc: 0]p: update_local_matrix_data: 244.967 [ms]
[OGL LOG][Proc: 0]p: update_non_local_matrix_data: 0.882 [ms]
[OGL LOG][Proc: 0]p_matrix: call_update: 3.862 [ms]
[OGL LOG][Proc: 0]p_rhs: call_update: 15.694 [ms]
[OGL LOG][Preconditioner.H:271] Generate preconditioner GISAI SparsityPower 1
[OGL LOG][Proc: 0]p: init_precond: 432.87 [ms]
[OGL LOG][StoppingCriterion.H:239] Creating stopping criterion with minIter 600 frequency 4
[OGL LOG][Proc: 0]p: generate_solver: 0.019 [ms]
[OGL LOG][Proc: 0]p: solve: 2993.687 [ms]
[OGL LOG][Proc: 0]p: copy_x_back: 24.548 [ms]
[OGL LOG][lduLduBase.H:330] 
Statistics:
	Time per iteration: 2990 [mu s]
	Time per residual norm calculation: 168.000000 [mu s]
	Time per iteration and DOF: 0.118517 [ns]
	Retrieve results bandwidth 2.057000 [GByte/s]
[OGL LOG][Proc: 0]p: solve_multi_gpu: 3474.486 [ms]
GISAIcudaGKOCG:  Solving for p, Initial residual = 0.9999999994446556, Final residual = 1.000000001393007, No Iterations 1001
time step continuity errors : sum local = 1.959255077015094, global = -0.001786417843733298, cumulative = -0.002784623668322902
[OGL LOG][Proc: 0]: global_index_init: 0.025 [ms]
[OGL LOG][Proc: 0]nuTilda_local_coeffs: call_update: 0 [ms]
[OGL LOG][Proc: 0]nuTilda_non_local_coeffs: call_update: 0 [ms]
[OGL LOG][Proc: 0]nuTilda: update_local_matrix_data: 315.944 [ms]
[OGL LOG][Proc: 0]nuTilda: update_non_local_matrix_data: 0.922 [ms]
[OGL LOG][Proc: 0]nuTilda_matrix: call_update: 3.765 [ms]
[OGL LOG][Proc: 0]nuTilda_rhs: call_update: 15.762 [ms]
[OGL LOG][Preconditioner.H:121] Generate preconditioner BJ MaxBlockSize 1
[OGL LOG][Proc: 0]nuTilda: init_precond: 2.391 [ms]
[OGL LOG][StoppingCriterion.H:239] Creating stopping criterion with minIter 4 frequency 1
[OGL LOG][Proc: 0]nuTilda: generate_solver: 0.021 [ms]
[OGL LOG][Proc: 0]nuTilda: solve: 288.124 [ms]
[OGL LOG][Proc: 0]nuTilda: copy_x_back: 25.831 [ms]
[OGL LOG][lduLduBase.H:330] 
Statistics:
	Time per iteration: 144062 [mu s]
	Time per residual norm calculation: 195.000000 [mu s]
	Time per iteration and DOF: 5.710278 [ns]
	Retrieve results bandwidth 1.955000 [GByte/s]
[OGL LOG][Proc: 0]nuTilda: solve_multi_gpu: 339.416 [ms]
BJcudaGKOBiCGStab:  Solving for nuTilda, Initial residual = 0.2747904615224351, Final residual = 0.01767428044480218, No Iterations 2
ExecutionTime = 1500.87 s  ClockTime = 1503 s

Time = 3

velocityDampingConstraint velocityDamping damped 0 (0%) of cells, with max limit 300
[OGL LOG][Proc: 0]: global_index_init: 0.08 [ms]
[OGL LOG][Proc: 0]Ux_local_coeffs: call_update: 0 [ms]
[OGL LOG][Proc: 0]Ux_non_local_coeffs: call_update: 0 [ms]
[OGL LOG][Proc: 0]Ux: update_local_matrix_data: 315.887 [ms]
[OGL LOG][Proc: 0]Ux: update_non_local_matrix_data: 0.883 [ms]
[OGL LOG][Proc: 0]Ux_matrix: call_update: 4.076 [ms]
[OGL LOG][Proc: 0]Ux_rhs: call_update: 15.793 [ms]
[OGL LOG][Preconditioner.H:121] Generate preconditioner BJ MaxBlockSize 1
[OGL LOG][Proc: 0]Ux: init_precond: 2.337 [ms]
[OGL LOG][StoppingCriterion.H:239] Creating stopping criterion with minIter 10 frequency 1
[OGL LOG][Proc: 0]Ux: generate_solver: 0.015 [ms]
[OGL LOG][Proc: 0]Ux: solve: 303.458 [ms]
[OGL LOG][Proc: 0]Ux: copy_x_back: 25.722 [ms]
[OGL LOG][lduLduBase.H:330] 
Statistics:
	Time per iteration: 43351 [mu s]
	Time per residual norm calculation: 264.000000 [mu s]
	Time per iteration and DOF: 1.718331 [ns]
	Retrieve results bandwidth 1.963000 [GByte/s]
[OGL LOG][Proc: 0]Ux: solve_multi_gpu: 354.728 [ms]
BJcudaGKOBiCGStab:  Solving for Ux, Initial residual = 0.1205228437385013, Final residual = 0.004699852120929751, No Iterations 7
[OGL LOG][Proc: 0]: global_index_init: 0.02 [ms]
[OGL LOG][Proc: 0]Uy_local_coeffs: call_update: 0 [ms]
[OGL LOG][Proc: 0]Uy_non_local_coeffs: call_update: 0 [ms]
[OGL LOG][Proc: 0]Uy: update_local_matrix_data: 315.513 [ms]
[OGL LOG][Proc: 0]Uy: update_non_local_matrix_data: 0.881 [ms]
[OGL LOG][Proc: 0]Uy_matrix: call_update: 3.822 [ms]
[OGL LOG][Proc: 0]Uy_rhs: call_update: 15.632 [ms]
[OGL LOG][Preconditioner.H:121] Generate preconditioner BJ MaxBlockSize 1
[OGL LOG][Proc: 0]Uy: init_precond: 2.111 [ms]
[OGL LOG][StoppingCriterion.H:239] Creating stopping criterion with minIter 7 frequency 1
[OGL LOG][Proc: 0]Uy: generate_solver: 0.014 [ms]
[OGL LOG][Proc: 0]Uy: solve: 304.369 [ms]
[OGL LOG][Proc: 0]Uy: copy_x_back: 25.289 [ms]
[OGL LOG][lduLduBase.H:330] 
Statistics:
	Time per iteration: 43481 [mu s]
	Time per residual norm calculation: 263.000000 [mu s]
	Time per iteration and DOF: 1.723484 [ns]
	Retrieve results bandwidth 1.997000 [GByte/s]
[OGL LOG][Proc: 0]Uy: solve_multi_gpu: 354.541 [ms]
BJcudaGKOBiCGStab:  Solving for Uy, Initial residual = 0.1084447046837253, Final residual = 0.008164271705197313, No Iterations 7
[OGL LOG][Proc: 0]: global_index_init: 0.014 [ms]
[OGL LOG][Proc: 0]Uz_local_coeffs: call_update: 0 [ms]
[OGL LOG][Proc: 0]Uz_non_local_coeffs: call_update: 0 [ms]
[OGL LOG][Proc: 0]Uz: update_local_matrix_data: 316.251 [ms]
[OGL LOG][Proc: 0]Uz: update_non_local_matrix_data: 0.867 [ms]
[OGL LOG][Proc: 0]Uz_matrix: call_update: 4.292 [ms]
[OGL LOG][Proc: 0]Uz_rhs: call_update: 15.628 [ms]
[OGL LOG][Preconditioner.H:121] Generate preconditioner BJ MaxBlockSize 1
[OGL LOG][Proc: 0]Uz: init_precond: 2.373 [ms]
[OGL LOG][StoppingCriterion.H:239] Creating stopping criterion with minIter 2 frequency 1
[OGL LOG][Proc: 0]Uz: generate_solver: 0.014 [ms]
[OGL LOG][Proc: 0]Uz: solve: 306.591 [ms]
[OGL LOG][Proc: 0]Uz: copy_x_back: 25.134 [ms]
[OGL LOG][lduLduBase.H:330] 
Statistics:
	Time per iteration: 38323 [mu s]
	Time per residual norm calculation: 265.000000 [mu s]
	Time per iteration and DOF: 1.519033 [ns]
	Retrieve results bandwidth 2.009000 [GByte/s]
[OGL LOG][Proc: 0]Uz: solve_multi_gpu: 357.33 [ms]
BJcudaGKOBiCGStab:  Solving for Uz, Initial residual = 0.1228437691230828, Final residual = 0.01189312925702029, No Iterations 8
[OGL LOG][Proc: 0]: global_index_init: 0.018 [ms]
[OGL LOG][Proc: 0]p_local_coeffs: call_update: 0 [ms]
[OGL LOG][Proc: 0]p_non_local_coeffs: call_update: 0 [ms]
[OGL LOG][Proc: 0]p: update_local_matrix_data: 242.484 [ms]
[OGL LOG][Proc: 0]p: update_non_local_matrix_data: 0.907 [ms]
[OGL LOG][Proc: 0]p_matrix: call_update: 4.253 [ms]
[OGL LOG][Proc: 0]p_rhs: call_update: 15.282 [ms]
[OGL LOG][Preconditioner.H:271] Generate preconditioner GISAI SparsityPower 1
[OGL LOG][Proc: 0]p: init_precond: 444.978 [ms]
[OGL LOG][StoppingCriterion.H:239] Creating stopping criterion with minIter 600 frequency 4
[OGL LOG][Proc: 0]p: generate_solver: 0.015 [ms]
[OGL LOG][Proc: 0]p: solve: 2972.623 [ms]
[OGL LOG][Proc: 0]p: copy_x_back: 18.132 [ms]
[OGL LOG][lduLduBase.H:330] 
Statistics:
	Time per iteration: 2969 [mu s]
	Time per residual norm calculation: 168.000000 [mu s]
	Time per iteration and DOF: 0.117684 [ns]
	Retrieve results bandwidth 2.785000 [GByte/s]
[OGL LOG][Proc: 0]p: solve_multi_gpu: 3458.036 [ms]
GISAIcudaGKOCG:  Solving for p, Initial residual = 0.9999999986056349, Final residual = 0.9999999993558046, No Iterations 1001
time step continuity errors : sum local = 6.396287986971124, global = -0.002707632072522834, cumulative = -0.005492255740845735
[OGL LOG][Proc: 0]: global_index_init: 0.018 [ms]
[OGL LOG][Proc: 0]nuTilda_local_coeffs: call_update: 0 [ms]
[OGL LOG][Proc: 0]nuTilda_non_local_coeffs: call_update: 0 [ms]
[OGL LOG][Proc: 0]nuTilda: update_local_matrix_data: 315.847 [ms]
[OGL LOG][Proc: 0]nuTilda: update_non_local_matrix_data: 0.8139999999999999 [ms]
[OGL LOG][Proc: 0]nuTilda_matrix: call_update: 4.057 [ms]
[OGL LOG][Proc: 0]nuTilda_rhs: call_update: 15.915 [ms]
[OGL LOG][Preconditioner.H:121] Generate preconditioner BJ MaxBlockSize 1
[OGL LOG][Proc: 0]nuTilda: init_precond: 2.181 [ms]
[OGL LOG][StoppingCriterion.H:239] Creating stopping criterion with minIter 3 frequency 1
[OGL LOG][Proc: 0]nuTilda: generate_solver: 0.014 [ms]
[OGL LOG][Proc: 0]nuTilda: solve: 287.127 [ms]
[OGL LOG][Proc: 0]nuTilda: copy_x_back: 25.47 [ms]
[OGL LOG][lduLduBase.H:330] 
Statistics:
	Time per iteration: 143563 [mu s]
	Time per residual norm calculation: 269.000000 [mu s]
	Time per iteration and DOF: 5.690499 [ns]
	Retrieve results bandwidth 1.983000 [GByte/s]
[OGL LOG][Proc: 0]nuTilda: solve_multi_gpu: 338.129 [ms]
BJcudaGKOBiCGStab:  Solving for nuTilda, Initial residual = 0.3568986264079699, Final residual = 0.02105369447951703, No Iterations 2
ExecutionTime = 1530.37 s  ClockTime = 1533 s

Time = 4

velocityDampingConstraint velocityDamping damped 122352 (0.48%) of cells, with max limit 300
[OGL LOG][Proc: 0]: global_index_init: 0.014 [ms]
[OGL LOG][Proc: 0]Ux_local_coeffs: call_update: 0 [ms]
[OGL LOG][Proc: 0]Ux_non_local_coeffs: call_update: 0 [ms]
[OGL LOG][Proc: 0]Ux: update_local_matrix_data: 316.13 [ms]
[OGL LOG][Proc: 0]Ux: update_non_local_matrix_data: 0.878 [ms]
[OGL LOG][Proc: 0]Ux_matrix: call_update: 4.086 [ms]
[OGL LOG][Proc: 0]Ux_rhs: call_update: 15.675 [ms]
[OGL LOG][Preconditioner.H:121] Generate preconditioner BJ MaxBlockSize 1
[OGL LOG][Proc: 0]Ux: init_precond: 2.229 [ms]
[OGL LOG][StoppingCriterion.H:239] Creating stopping criterion with minIter 8 frequency 1
[OGL LOG][Proc: 0]Ux: generate_solver: 0.024 [ms]
[OGL LOG][Proc: 0]Ux: solve: 304.149 [ms]
[OGL LOG][Proc: 0]Ux: copy_x_back: 25.434 [ms]
[OGL LOG][lduLduBase.H:330] 
Statistics:
	Time per iteration: 43449 [mu s]
	Time per residual norm calculation: 268.000000 [mu s]
	Time per iteration and DOF: 1.722216 [ns]
	Retrieve results bandwidth 1.985000 [GByte/s]
[OGL LOG][Proc: 0]Ux: solve_multi_gpu: 355.067 [ms]
BJcudaGKOBiCGStab:  Solving for Ux, Initial residual = 0.3483931386967863, Final residual = 0.02841504264346785, No Iterations 7
[OGL LOG][Proc: 0]: global_index_init: 0.014 [ms]
[OGL LOG][Proc: 0]Uy_local_coeffs: call_update: 0 [ms]
[OGL LOG][Proc: 0]Uy_non_local_coeffs: call_update: 0 [ms]
[OGL LOG][Proc: 0]Uy: update_local_matrix_data: 314.55 [ms]
[OGL LOG][Proc: 0]Uy: update_non_local_matrix_data: 0.851 [ms]
[OGL LOG][Proc: 0]Uy_matrix: call_update: 4.025 [ms]
[OGL LOG][Proc: 0]Uy_rhs: call_update: 15 [ms]
[OGL LOG][Preconditioner.H:121] Generate preconditioner BJ MaxBlockSize 1
[OGL LOG][Proc: 0]Uy: init_precond: 2.216 [ms]
[OGL LOG][StoppingCriterion.H:239] Creating stopping criterion with minIter 8 frequency 1
[OGL LOG][Proc: 0]Uy: generate_solver: 0.015 [ms]
[OGL LOG][Proc: 0]Uy: solve: 298.051 [ms]
[OGL LOG][Proc: 0]Uy: copy_x_back: 25.393 [ms]
[OGL LOG][lduLduBase.H:330] 
Statistics:
	Time per iteration: 59610 [mu s]
	Time per residual norm calculation: 175.000000 [mu s]
	Time per iteration and DOF: 2.362800 [ns]
	Retrieve results bandwidth 1.989000 [GByte/s]
[OGL LOG][Proc: 0]Uy: solve_multi_gpu: 347.982 [ms]
BJcudaGKOBiCGStab:  Solving for Uy, Initial residual = 0.3639013582147433, Final residual = 0.02573419322158779, No Iterations 5
[OGL LOG][Proc: 0]: global_index_init: 0.012 [ms]
[OGL LOG][Proc: 0]Uz_local_coeffs: call_update: 0 [ms]
[OGL LOG][Proc: 0]Uz_non_local_coeffs: call_update: 0 [ms]
[OGL LOG][Proc: 0]Uz: update_local_matrix_data: 315.915 [ms]
[OGL LOG][Proc: 0]Uz: update_non_local_matrix_data: 0.9379999999999999 [ms]
[OGL LOG][Proc: 0]Uz_matrix: call_update: 3.836 [ms]
[OGL LOG][Proc: 0]Uz_rhs: call_update: 15.641 [ms]
[OGL LOG][Preconditioner.H:121] Generate preconditioner BJ MaxBlockSize 1
[OGL LOG][Proc: 0]Uz: init_precond: 1.951 [ms]
[OGL LOG][StoppingCriterion.H:239] Creating stopping criterion with minIter 9 frequency 1
[OGL LOG][Proc: 0]Uz: generate_solver: 0.015 [ms]
[OGL LOG][Proc: 0]Uz: solve: 305.021 [ms]
[OGL LOG][Proc: 0]Uz: copy_x_back: 25.408 [ms]
[OGL LOG][lduLduBase.H:330] 
Statistics:
	Time per iteration: 43574 [mu s]
	Time per residual norm calculation: 178.000000 [mu s]
	Time per iteration and DOF: 1.727171 [ns]
	Retrieve results bandwidth 1.987000 [GByte/s]
[OGL LOG][Proc: 0]Uz: solve_multi_gpu: 355.42 [ms]
BJcudaGKOBiCGStab:  Solving for Uz, Initial residual = 0.365121082377486, Final residual = 0.02844324015541765, No Iterations 7
[OGL LOG][Proc: 0]: global_index_init: 0.017 [ms]
[OGL LOG][Proc: 0]p_local_coeffs: call_update: 0 [ms]
[OGL LOG][Proc: 0]p_non_local_coeffs: call_update: 0 [ms]
[OGL LOG][Proc: 0]p: update_local_matrix_data: 242.425 [ms]
[OGL LOG][Proc: 0]p: update_non_local_matrix_data: 0.897 [ms]
[OGL LOG][Proc: 0]p_matrix: call_update: 4.207 [ms]
[OGL LOG][Proc: 0]p_rhs: call_update: 15.413 [ms]
[OGL LOG][Preconditioner.H:271] Generate preconditioner GISAI SparsityPower 1
[OGL LOG][Proc: 0]p: init_precond: 450.013 [ms]
[OGL LOG][StoppingCriterion.H:239] Creating stopping criterion with minIter 600 frequency 4
[OGL LOG][Proc: 0]p: generate_solver: 0.017 [ms]
[OGL LOG][Proc: 0]p: solve: 2990.283 [ms]
[OGL LOG][Proc: 0]p: copy_x_back: 24.312 [ms]
[OGL LOG][lduLduBase.H:330] 
Statistics:
	Time per iteration: 2987 [mu s]
	Time per residual norm calculation: 169.000000 [mu s]
	Time per iteration and DOF: 0.118398 [ns]
	Retrieve results bandwidth 2.077000 [GByte/s]
[OGL LOG][Proc: 0]p: solve_multi_gpu: 3488.091 [ms]
GISAIcudaGKOCG:  Solving for p, Initial residual = 0.9999999997861316, Final residual = 0.9999999998523132, No Iterations 1001
time step continuity errors : sum local = 99.49995762102142, global = -0.003472246109957445, cumulative = -0.008964501850803181
[OGL LOG][Proc: 0]: global_index_init: 0.022 [ms]
[OGL LOG][Proc: 0]nuTilda_local_coeffs: call_update: 0 [ms]
[OGL LOG][Proc: 0]nuTilda_non_local_coeffs: call_update: 0 [ms]
[OGL LOG][Proc: 0]nuTilda: update_local_matrix_data: 316.852 [ms]
[OGL LOG][Proc: 0]nuTilda: update_non_local_matrix_data: 0.845 [ms]
[OGL LOG][Proc: 0]nuTilda_matrix: call_update: 4.011 [ms]
[OGL LOG][Proc: 0]nuTilda_rhs: call_update: 15.223 [ms]
[OGL LOG][Preconditioner.H:121] Generate preconditioner BJ MaxBlockSize 1
[OGL LOG][Proc: 0]nuTilda: init_precond: 2.021 [ms]
[OGL LOG][StoppingCriterion.H:239] Creating stopping criterion with minIter 2 frequency 1
[OGL LOG][Proc: 0]nuTilda: generate_solver: 0.016 [ms]
[OGL LOG][Proc: 0]nuTilda: solve: 316.456 [ms]
[OGL LOG][Proc: 0]nuTilda: copy_x_back: 25.411 [ms]
[OGL LOG][lduLduBase.H:330] 
Statistics:
	Time per iteration: 31645 [mu s]
	Time per residual norm calculation: 262.000000 [mu s]
	Time per iteration and DOF: 1.254333 [ns]
	Retrieve results bandwidth 1.987000 [GByte/s]
[OGL LOG][Proc: 0]nuTilda: solve_multi_gpu: 366.496 [ms]
BJcudaGKOBiCGStab:  Solving for nuTilda, Initial residual = 0.2341656863844175, Final residual = 0.009811610306182212, No Iterations 10
ExecutionTime = 1559.96 s  ClockTime = 1562 s

Time = 5

velocityDampingConstraint velocityDamping damped 113844 (0.45%) of cells, with max limit 300
[OGL LOG][Proc: 0]: global_index_init: 0.053 [ms]
[OGL LOG][Proc: 0]Ux_local_coeffs: call_update: 0 [ms]
[OGL LOG][Proc: 0]Ux_non_local_coeffs: call_update: 0 [ms]
[OGL LOG][Proc: 0]Ux: update_local_matrix_data: 316.968 [ms]
[OGL LOG][Proc: 0]Ux: update_non_local_matrix_data: 0.771 [ms]
[OGL LOG][Proc: 0]Ux_matrix: call_update: 4.138 [ms]
[OGL LOG][Proc: 0]Ux_rhs: call_update: 15.24 [ms]
[OGL LOG][Preconditioner.H:121] Generate preconditioner BJ MaxBlockSize 1
[OGL LOG][Proc: 0]Ux: init_precond: 2.19 [ms]
[OGL LOG][StoppingCriterion.H:239] Creating stopping criterion with minIter 8 frequency 1
[OGL LOG][Proc: 0]Ux: generate_solver: 0.014 [ms]
[OGL LOG][Proc: 0]Ux: solve: 294.057 [ms]
[OGL LOG][Proc: 0]Ux: copy_x_back: 25.613 [ms]
[OGL LOG][lduLduBase.H:330] 
Statistics:
	Time per iteration: 73514 [mu s]
	Time per residual norm calculation: 190.000000 [mu s]
	Time per iteration and DOF: 2.913922 [ns]
	Retrieve results bandwidth 1.971000 [GByte/s]
[OGL LOG][Proc: 0]Ux: solve_multi_gpu: 344.687 [ms]
BJcudaGKOBiCGStab:  Solving for Ux, Initial residual = 0.4668538977557845, Final residual = 0.0280569886321722, No Iterations 4
[OGL LOG][Proc: 0]: global_index_init: 0.013 [ms]
[OGL LOG][Proc: 0]Uy_local_coeffs: call_update: 0 [ms]
[OGL LOG][Proc: 0]Uy_non_local_coeffs: call_update: 0 [ms]
[OGL LOG][Proc: 0]Uy: update_local_matrix_data: 314.771 [ms]
[OGL LOG][Proc: 0]Uy: update_non_local_matrix_data: 0.795 [ms]
[OGL LOG][Proc: 0]Uy_matrix: call_update: 4.2 [ms]
[OGL LOG][Proc: 0]Uy_rhs: call_update: 15.587 [ms]
[OGL LOG][Preconditioner.H:121] Generate preconditioner BJ MaxBlockSize 1
[OGL LOG][Proc: 0]Uy: init_precond: 2.359 [ms]
[OGL LOG][StoppingCriterion.H:239] Creating stopping criterion with minIter 6 frequency 1
[OGL LOG][Proc: 0]Uy: generate_solver: 0.014 [ms]
[OGL LOG][Proc: 0]Uy: solve: 291.526 [ms]
[OGL LOG][Proc: 0]Uy: copy_x_back: 25.191 [ms]
[OGL LOG][lduLduBase.H:330] 
Statistics:
	Time per iteration: 97175 [mu s]
	Time per residual norm calculation: 192.000000 [mu s]
	Time per iteration and DOF: 3.851788 [ns]
	Retrieve results bandwidth 2.004000 [GByte/s]
[OGL LOG][Proc: 0]Uy: solve_multi_gpu: 342.217 [ms]
BJcudaGKOBiCGStab:  Solving for Uy, Initial residual = 0.4352923159184742, Final residual = 0.03262162872218032, No Iterations 3
[OGL LOG][Proc: 0]: global_index_init: 0.014 [ms]
[OGL LOG][Proc: 0]Uz_local_coeffs: call_update: 0 [ms]
[OGL LOG][Proc: 0]Uz_non_local_coeffs: call_update: 0 [ms]
[OGL LOG][Proc: 0]Uz: update_local_matrix_data: 315.343 [ms]
[OGL LOG][Proc: 0]Uz: update_non_local_matrix_data: 0.835 [ms]
[OGL LOG][Proc: 0]Uz_matrix: call_update: 4.253 [ms]
[OGL LOG][Proc: 0]Uz_rhs: call_update: 15.069 [ms]
[OGL LOG][Preconditioner.H:121] Generate preconditioner BJ MaxBlockSize 1
[OGL LOG][Proc: 0]Uz: init_precond: 2.166 [ms]
[OGL LOG][StoppingCriterion.H:239] Creating stopping criterion with minIter 9 frequency 1
[OGL LOG][Proc: 0]Uz: generate_solver: 0.014 [ms]
[OGL LOG][Proc: 0]Uz: solve: 296.377 [ms]
[OGL LOG][Proc: 0]Uz: copy_x_back: 25.246 [ms]
[OGL LOG][lduLduBase.H:330] 
Statistics:
	Time per iteration: 59275 [mu s]
	Time per residual norm calculation: 269.000000 [mu s]
	Time per iteration and DOF: 2.349521 [ns]
	Retrieve results bandwidth 2.000000 [GByte/s]
[OGL LOG][Proc: 0]Uz: solve_multi_gpu: 346.5 [ms]
BJcudaGKOBiCGStab:  Solving for Uz, Initial residual = 0.4375170706100892, Final residual = 0.01895297720596259, No Iterations 5
[OGL LOG][Proc: 0]: global_index_init: 0.018 [ms]
[OGL LOG][Proc: 0]p_local_coeffs: call_update: 0 [ms]
[OGL LOG][Proc: 0]p_non_local_coeffs: call_update: 0 [ms]
[OGL LOG][Proc: 0]p: update_local_matrix_data: 243.328 [ms]
[OGL LOG][Proc: 0]p: update_non_local_matrix_data: 0.803 [ms]
[OGL LOG][Proc: 0]p_matrix: call_update: 4.058 [ms]
[OGL LOG][Proc: 0]p_rhs: call_update: 15.802 [ms]
[OGL LOG][Preconditioner.H:271] Generate preconditioner GISAI SparsityPower 1
[OGL LOG][Proc: 0]p: init_precond: 424.5 [ms]
[OGL LOG][StoppingCriterion.H:239] Creating stopping criterion with minIter 600 frequency 4
[OGL LOG][Proc: 0]p: generate_solver: 0.02 [ms]
[OGL LOG][Proc: 0]p: solve: 3005.586 [ms]
[OGL LOG][Proc: 0]p: copy_x_back: 24.657 [ms]
[OGL LOG][lduLduBase.H:330] 
Statistics:
	Time per iteration: 3002 [mu s]
	Time per residual norm calculation: 168.000000 [mu s]
	Time per iteration and DOF: 0.118992 [ns]
	Retrieve results bandwidth 2.048000 [GByte/s]
[OGL LOG][Proc: 0]p: solve_multi_gpu: 3478.446 [ms]
GISAIcudaGKOCG:  Solving for p, Initial residual = 0.9999999998235233, Final residual = 0.9999999998209896, No Iterations 1001
time step continuity errors : sum local = 260.689845985422, global = -0.003981472364503098, cumulative = -0.01294597421530628
[OGL LOG][Proc: 0]: global_index_init: 0.025 [ms]
[OGL LOG][Proc: 0]nuTilda_local_coeffs: call_update: 0 [ms]
[OGL LOG][Proc: 0]nuTilda_non_local_coeffs: call_update: 0 [ms]
[OGL LOG][Proc: 0]nuTilda: update_local_matrix_data: 315.291 [ms]
[OGL LOG][Proc: 0]nuTilda: update_non_local_matrix_data: 0.9 [ms]
[OGL LOG][Proc: 0]nuTilda_matrix: call_update: 3.749 [ms]
[OGL LOG][Proc: 0]nuTilda_rhs: call_update: 15.71 [ms]
[OGL LOG][Preconditioner.H:121] Generate preconditioner BJ MaxBlockSize 1
[OGL LOG][Proc: 0]nuTilda: init_precond: 2.237 [ms]
[OGL LOG][StoppingCriterion.H:239] Creating stopping criterion with minIter 12 frequency 1
[OGL LOG][Proc: 0]nuTilda: generate_solver: 0.023 [ms]
[OGL LOG][Proc: 0]nuTilda: solve: 305.048 [ms]
[OGL LOG][Proc: 0]nuTilda: copy_x_back: 25.21 [ms]
[OGL LOG][lduLduBase.H:330] 
Statistics:
	Time per iteration: 43578 [mu s]
	Time per residual norm calculation: 176.000000 [mu s]
	Time per iteration and DOF: 1.727329 [ns]
	Retrieve results bandwidth 2.003000 [GByte/s]
[OGL LOG][Proc: 0]nuTilda: solve_multi_gpu: 355.373 [ms]
BJcudaGKOBiCGStab:  Solving for nuTilda, Initial residual = 0.371020098385411, Final residual = 0.02690009125455532, No Iterations 7
ExecutionTime = 1589.61 s  ClockTime = 1592 s

Time = 6

velocityDampingConstraint velocityDamping damped 231144 (0.92%) of cells, with max limit 300
[OGL LOG][Proc: 0]: global_index_init: 0.06 [ms]
[OGL LOG][Proc: 0]Ux_local_coeffs: call_update: 0 [ms]
[OGL LOG][Proc: 0]Ux_non_local_coeffs: call_update: 0 [ms]
[OGL LOG][Proc: 0]Ux: update_local_matrix_data: 316.649 [ms]
[OGL LOG][Proc: 0]Ux: update_non_local_matrix_data: 0.893 [ms]
[OGL LOG][Proc: 0]Ux_matrix: call_update: 3.946 [ms]
[OGL LOG][Proc: 0]Ux_rhs: call_update: 15.632 [ms]
[OGL LOG][Preconditioner.H:121] Generate preconditioner BJ MaxBlockSize 1
[OGL LOG][Proc: 0]Ux: init_precond: 2.29 [ms]
[OGL LOG][StoppingCriterion.H:239] Creating stopping criterion with minIter 5 frequency 1
[OGL LOG][Proc: 0]Ux: generate_solver: 0.019 [ms]
[OGL LOG][Proc: 0]Ux: solve: 290.677 [ms]
[OGL LOG][Proc: 0]Ux: copy_x_back: 25.532 [ms]
[OGL LOG][lduLduBase.H:330] 
Statistics:
	Time per iteration: 96892 [mu s]
	Time per residual norm calculation: 273.000000 [mu s]
	Time per iteration and DOF: 3.840570 [ns]
	Retrieve results bandwidth 1.978000 [GByte/s]
[OGL LOG][Proc: 0]Ux: solve_multi_gpu: 341.397 [ms]
BJcudaGKOBiCGStab:  Solving for Ux, Initial residual = 0.5094950661240526, Final residual = 0.01376252177498436, No Iterations 3
[OGL LOG][Proc: 0]: global_index_init: 0.03 [ms]
[OGL LOG][Proc: 0]Uy_local_coeffs: call_update: 0 [ms]
[OGL LOG][Proc: 0]Uy_non_local_coeffs: call_update: 0 [ms]
[OGL LOG][Proc: 0]Uy: update_local_matrix_data: 315.382 [ms]
[OGL LOG][Proc: 0]Uy: update_non_local_matrix_data: 0.846 [ms]
[OGL LOG][Proc: 0]Uy_matrix: call_update: 4.007 [ms]
[OGL LOG][Proc: 0]Uy_rhs: call_update: 15.816 [ms]
[OGL LOG][Preconditioner.H:121] Generate preconditioner BJ MaxBlockSize 1
[OGL LOG][Proc: 0]Uy: init_precond: 2.209 [ms]
[OGL LOG][StoppingCriterion.H:239] Creating stopping criterion with minIter 4 frequency 1
[OGL LOG][Proc: 0]Uy: generate_solver: 0.015 [ms]
[OGL LOG][Proc: 0]Uy: solve: 288.412 [ms]
[OGL LOG][Proc: 0]Uy: copy_x_back: 25.073 [ms]
[OGL LOG][lduLduBase.H:330] 
Statistics:
	Time per iteration: 144206 [mu s]
	Time per residual norm calculation: 191.000000 [mu s]
	Time per iteration and DOF: 5.715986 [ns]
	Retrieve results bandwidth 2.014000 [GByte/s]
[OGL LOG][Proc: 0]Uy: solve_multi_gpu: 338.799 [ms]
BJcudaGKOBiCGStab:  Solving for Uy, Initial residual = 0.5386909008959647, Final residual = 0.02974127662955586, No Iterations 2
[OGL LOG][Proc: 0]: global_index_init: 0.013 [ms]
[OGL LOG][Proc: 0]Uz_local_coeffs: call_update: 0 [ms]
[OGL LOG][Proc: 0]Uz_non_local_coeffs: call_update: 0 [ms]
[OGL LOG][Proc: 0]Uz: update_local_matrix_data: 314.684 [ms]
[OGL LOG][Proc: 0]Uz: update_non_local_matrix_data: 0.842 [ms]
[OGL LOG][Proc: 0]Uz_matrix: call_update: 4.264 [ms]
[OGL LOG][Proc: 0]Uz_rhs: call_update: 14.975 [ms]
[OGL LOG][Preconditioner.H:121] Generate preconditioner BJ MaxBlockSize 1
[OGL LOG][Proc: 0]Uz: init_precond: 2.207 [ms]
[OGL LOG][StoppingCriterion.H:239] Creating stopping criterion with minIter 6 frequency 1
[OGL LOG][Proc: 0]Uz: generate_solver: 0.015 [ms]
[OGL LOG][Proc: 0]Uz: solve: 291.29 [ms]
[OGL LOG][Proc: 0]Uz: copy_x_back: 25.545 [ms]
[OGL LOG][lduLduBase.H:330] 
Statistics:
	Time per iteration: 97096 [mu s]
	Time per residual norm calculation: 199.000000 [mu s]
	Time per iteration and DOF: 3.848657 [ns]
	Retrieve results bandwidth 1.977000 [GByte/s]
[OGL LOG][Proc: 0]Uz: solve_multi_gpu: 341.61 [ms]
BJcudaGKOBiCGStab:  Solving for Uz, Initial residual = 0.5997443613808903, Final residual = 0.01317751933894424, No Iterations 3
[OGL LOG][Proc: 0]: global_index_init: 0.025 [ms]
[OGL LOG][Proc: 0]p_local_coeffs: call_update: 0 [ms]
[OGL LOG][Proc: 0]p_non_local_coeffs: call_update: 0 [ms]
[OGL LOG][Proc: 0]p: update_local_matrix_data: 243.665 [ms]
[OGL LOG][Proc: 0]p: update_non_local_matrix_data: 0.986 [ms]
[OGL LOG][Proc: 0]p_matrix: call_update: 3.898 [ms]
[OGL LOG][Proc: 0]p_rhs: call_update: 15.704 [ms]
[OGL LOG][Preconditioner.H:271] Generate preconditioner GISAI SparsityPower 1
[OGL LOG][Proc: 0]p: init_precond: 450.496 [ms]
[OGL LOG][StoppingCriterion.H:239] Creating stopping criterion with minIter 600 frequency 4
[OGL LOG][Proc: 0]p: generate_solver: 0.016 [ms]
[OGL LOG][Proc: 0]p: solve: 2990.941 [ms]
[OGL LOG][Proc: 0]p: copy_x_back: 24.694 [ms]
[OGL LOG][lduLduBase.H:330] 
Statistics:
	Time per iteration: 2987 [mu s]
	Time per residual norm calculation: 171.000000 [mu s]
	Time per iteration and DOF: 0.118398 [ns]
	Retrieve results bandwidth 2.045000 [GByte/s]
[OGL LOG][Proc: 0]p: solve_multi_gpu: 3489.573 [ms]
GISAIcudaGKOCG:  Solving for p, Initial residual = 0.999999999576926, Final residual = 0.999999999638209, No Iterations 1001
time step continuity errors : sum local = 146.3480725697488, global = -0.004450881473633214, cumulative = -0.01739685568893949
[OGL LOG][Proc: 0]: global_index_init: 0.018 [ms]
[OGL LOG][Proc: 0]nuTilda_local_coeffs: call_update: 0 [ms]
[OGL LOG][Proc: 0]nuTilda_non_local_coeffs: call_update: 0 [ms]
[OGL LOG][Proc: 0]nuTilda: update_local_matrix_data: 315.794 [ms]
[OGL LOG][Proc: 0]nuTilda: update_non_local_matrix_data: 0.784 [ms]
[OGL LOG][Proc: 0]nuTilda_matrix: call_update: 4.138 [ms]
[OGL LOG][Proc: 0]nuTilda_rhs: call_update: 15.44 [ms]
[OGL LOG][Preconditioner.H:121] Generate preconditioner BJ MaxBlockSize 1
[OGL LOG][Proc: 0]nuTilda: init_precond: 2.081 [ms]
[OGL LOG][StoppingCriterion.H:239] Creating stopping criterion with minIter 9 frequency 1
[OGL LOG][Proc: 0]nuTilda: generate_solver: 0.017 [ms]
[OGL LOG][Proc: 0]nuTilda: solve: 303.922 [ms]
[OGL LOG][Proc: 0]nuTilda: copy_x_back: 25.272 [ms]
[OGL LOG][lduLduBase.H:330] 
Statistics:
	Time per iteration: 43417 [mu s]
	Time per residual norm calculation: 260.000000 [mu s]
	Time per iteration and DOF: 1.720948 [ns]
	Retrieve results bandwidth 1.998000 [GByte/s]
[OGL LOG][Proc: 0]nuTilda: solve_multi_gpu: 354.156 [ms]
BJcudaGKOBiCGStab:  Solving for nuTilda, Initial residual = 0.2959154812309808, Final residual = 0.02018904376100586, No Iterations 7
ExecutionTime = 1619.32 s  ClockTime = 1622 s

Time = 7

velocityDampingConstraint velocityDamping damped 249656 (0.99%) of cells, with max limit 300
[OGL LOG][Proc: 0]: global_index_init: 0.016 [ms]
[OGL LOG][Proc: 0]Ux_local_coeffs: call_update: 0 [ms]
[OGL LOG][Proc: 0]Ux_non_local_coeffs: call_update: 0 [ms]
[OGL LOG][Proc: 0]Ux: update_local_matrix_data: 315.646 [ms]
[OGL LOG][Proc: 0]Ux: update_non_local_matrix_data: 0.891 [ms]
[OGL LOG][Proc: 0]Ux_matrix: call_update: 3.753 [ms]
[OGL LOG][Proc: 0]Ux_rhs: call_update: 15.838 [ms]
[OGL LOG][Preconditioner.H:121] Generate preconditioner BJ MaxBlockSize 1
[OGL LOG][Proc: 0]Ux: init_precond: 2.033 [ms]
[OGL LOG][StoppingCriterion.H:239] Creating stopping criterion with minIter 3 frequency 1
[OGL LOG][Proc: 0]Ux: generate_solver: 0.031 [ms]
[OGL LOG][Proc: 0]Ux: solve: 289.792 [ms]
[OGL LOG][Proc: 0]Ux: copy_x_back: 25.613 [ms]
[OGL LOG][lduLduBase.H:330] 
Statistics:
	Time per iteration: 144896 [mu s]
	Time per residual norm calculation: 183.000000 [mu s]
	Time per iteration and DOF: 5.743336 [ns]
	Retrieve results bandwidth 1.971000 [GByte/s]
[OGL LOG][Proc: 0]Ux: solve_multi_gpu: 340.548 [ms]
BJcudaGKOBiCGStab:  Solving for Ux, Initial residual = 0.5399935978869548, Final residual = 0.04395266195687697, No Iterations 2
[OGL LOG][Proc: 0]: global_index_init: 0.015 [ms]
[OGL LOG][Proc: 0]Uy_local_coeffs: call_update: 0 [ms]
[OGL LOG][Proc: 0]Uy_non_local_coeffs: call_update: 0 [ms]
[OGL LOG][Proc: 0]Uy: update_local_matrix_data: 314.737 [ms]
[OGL LOG][Proc: 0]Uy: update_non_local_matrix_data: 0.889 [ms]
[OGL LOG][Proc: 0]Uy_matrix: call_update: 3.947 [ms]
[OGL LOG][Proc: 0]Uy_rhs: call_update: 15.776 [ms]
[OGL LOG][Preconditioner.H:121] Generate preconditioner BJ MaxBlockSize 1
[OGL LOG][Proc: 0]Uy: init_precond: 1.997 [ms]
[OGL LOG][StoppingCriterion.H:239] Creating stopping criterion with minIter 3 frequency 1
[OGL LOG][Proc: 0]Uy: generate_solver: 0.014 [ms]
[OGL LOG][Proc: 0]Uy: solve: 290.169 [ms]
[OGL LOG][Proc: 0]Uy: copy_x_back: 25.554 [ms]
[OGL LOG][lduLduBase.H:330] 
Statistics:
	Time per iteration: 96723 [mu s]
	Time per residual norm calculation: 265.000000 [mu s]
	Time per iteration and DOF: 3.833872 [ns]
	Retrieve results bandwidth 1.976000 [GByte/s]
[OGL LOG][Proc: 0]Uy: solve_multi_gpu: 340.769 [ms]
BJcudaGKOBiCGStab:  Solving for Uy, Initial residual = 0.5401121875190003, Final residual = 0.04923130729281026, No Iterations 3
[OGL LOG][Proc: 0]: global_index_init: 0.012 [ms]
[OGL LOG][Proc: 0]Uz_local_coeffs: call_update: 0 [ms]
[OGL LOG][Proc: 0]Uz_non_local_coeffs: call_update: 0 [ms]
[OGL LOG][Proc: 0]Uz: update_local_matrix_data: 315.666 [ms]
[OGL LOG][Proc: 0]Uz: update_non_local_matrix_data: 0.893 [ms]
[OGL LOG][Proc: 0]Uz_matrix: call_update: 4.109 [ms]
[OGL LOG][Proc: 0]Uz_rhs: call_update: 15.539 [ms]
[OGL LOG][Preconditioner.H:121] Generate preconditioner BJ MaxBlockSize 1
[OGL LOG][Proc: 0]Uz: init_precond: 2.396 [ms]
[OGL LOG][StoppingCriterion.H:239] Creating stopping criterion with minIter 4 frequency 1
[OGL LOG][Proc: 0]Uz: generate_solver: 0.015 [ms]
[OGL LOG][Proc: 0]Uz: solve: 291.054 [ms]
[OGL LOG][Proc: 0]Uz: copy_x_back: 25.04 [ms]
[OGL LOG][lduLduBase.H:330] 
Statistics:
	Time per iteration: 97018 [mu s]
	Time per residual norm calculation: 175.000000 [mu s]
	Time per iteration and DOF: 3.845565 [ns]
	Retrieve results bandwidth 2.017000 [GByte/s]
[OGL LOG][Proc: 0]Uz: solve_multi_gpu: 341.535 [ms]
BJcudaGKOBiCGStab:  Solving for Uz, Initial residual = 0.5475578528553355, Final residual = 0.03910138549443119, No Iterations 3
[OGL LOG][Proc: 0]: global_index_init: 0.016 [ms]
[OGL LOG][Proc: 0]p_local_coeffs: call_update: 0 [ms]
[OGL LOG][Proc: 0]p_non_local_coeffs: call_update: 0 [ms]
[OGL LOG][Proc: 0]p: update_local_matrix_data: 243.501 [ms]
[OGL LOG][Proc: 0]p: update_non_local_matrix_data: 0.897 [ms]
[OGL LOG][Proc: 0]p_matrix: call_update: 3.948 [ms]
[OGL LOG][Proc: 0]p_rhs: call_update: 15.123 [ms]
[OGL LOG][Preconditioner.H:271] Generate preconditioner GISAI SparsityPower 1
[OGL LOG][Proc: 0]p: init_precond: 434.739 [ms]
[OGL LOG][StoppingCriterion.H:239] Creating stopping criterion with minIter 600 frequency 4
[OGL LOG][Proc: 0]p: generate_solver: 0.017 [ms]
[OGL LOG][Proc: 0]p: solve: 2992.635 [ms]
[OGL LOG][Proc: 0]p: copy_x_back: 24.362 [ms]
[OGL LOG][lduLduBase.H:330] 
Statistics:
	Time per iteration: 2989 [mu s]
	Time per residual norm calculation: 169.000000 [mu s]
	Time per iteration and DOF: 0.118477 [ns]
	Retrieve results bandwidth 2.073000 [GByte/s]
[OGL LOG][Proc: 0]p: solve_multi_gpu: 3474.635 [ms]
GISAIcudaGKOCG:  Solving for p, Initial residual = 0.9999999990826204, Final residual = 0.9999999990424162, No Iterations 1001
time step continuity errors : sum local = 69.76941986847397, global = -0.004874538742824581, cumulative = -0.02227139443176407
[OGL LOG][Proc: 0]: global_index_init: 0.02 [ms]
[OGL LOG][Proc: 0]nuTilda_local_coeffs: call_update: 0 [ms]
[OGL LOG][Proc: 0]nuTilda_non_local_coeffs: call_update: 0 [ms]
[OGL LOG][Proc: 0]nuTilda: update_local_matrix_data: 316.597 [ms]
[OGL LOG][Proc: 0]nuTilda: update_non_local_matrix_data: 0.921 [ms]
[OGL LOG][Proc: 0]nuTilda_matrix: call_update: 3.667 [ms]
[OGL LOG][Proc: 0]nuTilda_rhs: call_update: 15.632 [ms]
[OGL LOG][Preconditioner.H:121] Generate preconditioner BJ MaxBlockSize 1
[OGL LOG][Proc: 0]nuTilda: init_precond: 2.129 [ms]
[OGL LOG][StoppingCriterion.H:239] Creating stopping criterion with minIter 8 frequency 1
[OGL LOG][Proc: 0]nuTilda: generate_solver: 0.017 [ms]
[OGL LOG][Proc: 0]nuTilda: solve: 310.94 [ms]
[OGL LOG][Proc: 0]nuTilda: copy_x_back: 24.911 [ms]
[OGL LOG][lduLduBase.H:330] 
Statistics:
	Time per iteration: 38867 [mu s]
	Time per residual norm calculation: 170.000000 [mu s]
	Time per iteration and DOF: 1.540596 [ns]
	Retrieve results bandwidth 2.027000 [GByte/s]
[OGL LOG][Proc: 0]nuTilda: solve_multi_gpu: 360.653 [ms]
BJcudaGKOBiCGStab:  Solving for nuTilda, Initial residual = 0.2328764016489157, Final residual = 0.01676766043690697, No Iterations 8
ExecutionTime = 1649.06 s  ClockTime = 1652 s

Time = 8

velocityDampingConstraint velocityDamping damped 253116 (1%) of cells, with max limit 300
[OGL LOG][Proc: 0]: global_index_init: 0.06 [ms]
[OGL LOG][Proc: 0]Ux_local_coeffs: call_update: 0 [ms]
[OGL LOG][Proc: 0]Ux_non_local_coeffs: call_update: 0 [ms]
[OGL LOG][Proc: 0]Ux: update_local_matrix_data: 315.918 [ms]
[OGL LOG][Proc: 0]Ux: update_non_local_matrix_data: 0.754 [ms]
[OGL LOG][Proc: 0]Ux_matrix: call_update: 4.253 [ms]
[OGL LOG][Proc: 0]Ux_rhs: call_update: 15.659 [ms]
[OGL LOG][Preconditioner.H:121] Generate preconditioner BJ MaxBlockSize 1
[OGL LOG][Proc: 0]Ux: init_precond: 2.13 [ms]
[OGL LOG][StoppingCriterion.H:239] Creating stopping criterion with minIter 3 frequency 1
[OGL LOG][Proc: 0]Ux: generate_solver: 0.014 [ms]
[OGL LOG][Proc: 0]Ux: solve: 294.557 [ms]
[OGL LOG][Proc: 0]Ux: copy_x_back: 25.776 [ms]
[OGL LOG][lduLduBase.H:330] 
Statistics:
	Time per iteration: 73639 [mu s]
	Time per residual norm calculation: 266.000000 [mu s]
	Time per iteration and DOF: 2.918876 [ns]
	Retrieve results bandwidth 1.959000 [GByte/s]
[OGL LOG][Proc: 0]Ux: solve_multi_gpu: 345.81 [ms]
BJcudaGKOBiCGStab:  Solving for Ux, Initial residual = 0.4783283744730748, Final residual = 0.03452877782459537, No Iterations 4
[OGL LOG][Proc: 0]: global_index_init: 0.025 [ms]
[OGL LOG][Proc: 0]Uy_local_coeffs: call_update: 0 [ms]
[OGL LOG][Proc: 0]Uy_non_local_coeffs: call_update: 0 [ms]
[OGL LOG][Proc: 0]Uy: update_local_matrix_data: 315.683 [ms]
[OGL LOG][Proc: 0]Uy: update_non_local_matrix_data: 0.806 [ms]
[OGL LOG][Proc: 0]Uy_matrix: call_update: 3.86 [ms]
[OGL LOG][Proc: 0]Uy_rhs: call_update: 15.753 [ms]
[OGL LOG][Preconditioner.H:121] Generate preconditioner BJ MaxBlockSize 1
[OGL LOG][Proc: 0]Uy: init_precond: 2.191 [ms]
[OGL LOG][StoppingCriterion.H:239] Creating stopping criterion with minIter 3 frequency 1
[OGL LOG][Proc: 0]Uy: generate_solver: 0.016 [ms]
[OGL LOG][Proc: 0]Uy: solve: 290.187 [ms]
[OGL LOG][Proc: 0]Uy: copy_x_back: 25.335 [ms]
[OGL LOG][lduLduBase.H:330] 
Statistics:
	Time per iteration: 96729 [mu s]
	Time per residual norm calculation: 263.000000 [mu s]
	Time per iteration and DOF: 3.834109 [ns]
	Retrieve results bandwidth 1.993000 [GByte/s]
[OGL LOG][Proc: 0]Uy: solve_multi_gpu: 340.617 [ms]
BJcudaGKOBiCGStab:  Solving for Uy, Initial residual = 0.506147871659637, Final residual = 0.03662547902727039, No Iterations 3
[OGL LOG][Proc: 0]: global_index_init: 0.014 [ms]
[OGL LOG][Proc: 0]Uz_local_coeffs: call_update: 0 [ms]
[OGL LOG][Proc: 0]Uz_non_local_coeffs: call_update: 0 [ms]
[OGL LOG][Proc: 0]Uz: update_local_matrix_data: 315.743 [ms]
[OGL LOG][Proc: 0]Uz: update_non_local_matrix_data: 0.741 [ms]
[OGL LOG][Proc: 0]Uz_matrix: call_update: 3.861 [ms]
[OGL LOG][Proc: 0]Uz_rhs: call_update: 15.58 [ms]
[OGL LOG][Preconditioner.H:121] Generate preconditioner BJ MaxBlockSize 1
[OGL LOG][Proc: 0]Uz: init_precond: 2.186 [ms]
[OGL LOG][StoppingCriterion.H:239] Creating stopping criterion with minIter 4 frequency 1
[OGL LOG][Proc: 0]Uz: generate_solver: 0.014 [ms]
[OGL LOG][Proc: 0]Uz: solve: 287.851 [ms]
[OGL LOG][Proc: 0]Uz: copy_x_back: 25.299 [ms]
[OGL LOG][lduLduBase.H:330] 
Statistics:
	Time per iteration: 143925 [mu s]
	Time per residual norm calculation: 191.000000 [mu s]
	Time per iteration and DOF: 5.704848 [ns]
	Retrieve results bandwidth 1.996000 [GByte/s]
[OGL LOG][Proc: 0]Uz: solve_multi_gpu: 337.977 [ms]
BJcudaGKOBiCGStab:  Solving for Uz, Initial residual = 0.4851003957810452, Final residual = 0.0457435992652368, No Iterations 2
[OGL LOG][Proc: 0]: global_index_init: 0.017 [ms]
[OGL LOG][Proc: 0]p_local_coeffs: call_update: 0 [ms]
[OGL LOG][Proc: 0]p_non_local_coeffs: call_update: 0 [ms]
[OGL LOG][Proc: 0]p: update_local_matrix_data: 242.86 [ms]
[OGL LOG][Proc: 0]p: update_non_local_matrix_data: 0.8139999999999999 [ms]
[OGL LOG][Proc: 0]p_matrix: call_update: 3.795 [ms]
[OGL LOG][Proc: 0]p_rhs: call_update: 15.495 [ms]
[OGL LOG][Preconditioner.H:271] Generate preconditioner GISAI SparsityPower 1
[OGL LOG][Proc: 0]p: init_precond: 450.957 [ms]
[OGL LOG][StoppingCriterion.H:239] Creating stopping criterion with minIter 600 frequency 4
[OGL LOG][Proc: 0]p: generate_solver: 0.015 [ms]
[OGL LOG][Proc: 0]p: solve: 2991.603 [ms]
[OGL LOG][Proc: 0]p: copy_x_back: 24.125 [ms]
[OGL LOG][lduLduBase.H:330] 
Statistics:
	Time per iteration: 2988 [mu s]
	Time per residual norm calculation: 177.000000 [mu s]
	Time per iteration and DOF: 0.118437 [ns]
	Retrieve results bandwidth 2.093000 [GByte/s]
[OGL LOG][Proc: 0]p: solve_multi_gpu: 3489.79 [ms]
GISAIcudaGKOCG:  Solving for p, Initial residual = 0.9999999998906595, Final residual = 0.9999999998779197, No Iterations 1001
time step continuity errors : sum local = 536.4074091563236, global = -0.005365568433186944, cumulative = -0.02763696286495101
[OGL LOG][Proc: 0]: global_index_init: 0.022 [ms]
[OGL LOG][Proc: 0]nuTilda_local_coeffs: call_update: 0 [ms]
[OGL LOG][Proc: 0]nuTilda_non_local_coeffs: call_update: 0 [ms]
[OGL LOG][Proc: 0]nuTilda: update_local_matrix_data: 314.395 [ms]
[OGL LOG][Proc: 0]nuTilda: update_non_local_matrix_data: 0.97 [ms]
[OGL LOG][Proc: 0]nuTilda_matrix: call_update: 3.542 [ms]
[OGL LOG][Proc: 0]nuTilda_rhs: call_update: 16.114 [ms]
[OGL LOG][Preconditioner.H:121] Generate preconditioner BJ MaxBlockSize 1
[OGL LOG][Proc: 0]nuTilda: init_precond: 2.472 [ms]
[OGL LOG][StoppingCriterion.H:239] Creating stopping criterion with minIter 10 frequency 1
[OGL LOG][Proc: 0]nuTilda: generate_solver: 0.022 [ms]
[OGL LOG][Proc: 0]nuTilda: solve: 300.191 [ms]
[OGL LOG][Proc: 0]nuTilda: copy_x_back: 25.096 [ms]
[OGL LOG][lduLduBase.H:330] 
Statistics:
	Time per iteration: 50031 [mu s]
	Time per residual norm calculation: 262.000000 [mu s]
	Time per iteration and DOF: 1.983111 [ns]
	Retrieve results bandwidth 2.012000 [GByte/s]
[OGL LOG][Proc: 0]nuTilda: solve_multi_gpu: 350.679 [ms]
BJcudaGKOBiCGStab:  Solving for nuTilda, Initial residual = 0.3015463282168822, Final residual = 0.02037747553214546, No Iterations 6
bounding nuTilda, min: -0.03294166180040296 max: 0.372359448801952 average: 0.0002160856389634833
ExecutionTime = 1679.37 s  ClockTime = 1682 s

Time = 9

velocityDampingConstraint velocityDamping damped 254562 (1.01%) of cells, with max limit 300
[OGL LOG][Proc: 0]: global_index_init: 0.059 [ms]
[OGL LOG][Proc: 0]Ux_local_coeffs: call_update: 0 [ms]
[OGL LOG][Proc: 0]Ux_non_local_coeffs: call_update: 0 [ms]
[OGL LOG][Proc: 0]Ux: update_local_matrix_data: 316.122 [ms]
[OGL LOG][Proc: 0]Ux: update_non_local_matrix_data: 0.844 [ms]
[OGL LOG][Proc: 0]Ux_matrix: call_update: 3.842 [ms]
[OGL LOG][Proc: 0]Ux_rhs: call_update: 14.937 [ms]
[OGL LOG][Preconditioner.H:121] Generate preconditioner BJ MaxBlockSize 1
[OGL LOG][Proc: 0]Ux: init_precond: 2.105 [ms]
[OGL LOG][StoppingCriterion.H:239] Creating stopping criterion with minIter 4 frequency 1
[OGL LOG][Proc: 0]Ux: generate_solver: 0.015 [ms]
[OGL LOG][Proc: 0]Ux: solve: 290.263 [ms]
[OGL LOG][Proc: 0]Ux: copy_x_back: 25.688 [ms]
[OGL LOG][lduLduBase.H:330] 
Statistics:
	Time per iteration: 145131 [mu s]
	Time per residual norm calculation: 198.000000 [mu s]
	Time per iteration and DOF: 5.752651 [ns]
	Retrieve results bandwidth 1.966000 [GByte/s]
[OGL LOG][Proc: 0]Ux: solve_multi_gpu: 340.293 [ms]
BJcudaGKOBiCGStab:  Solving for Ux, Initial residual = 0.6388035788414033, Final residual = 0.01211890024506456, No Iterations 2
[OGL LOG][Proc: 0]: global_index_init: 0.012 [ms]
[OGL LOG][Proc: 0]Uy_local_coeffs: call_update: 0 [ms]
[OGL LOG][Proc: 0]Uy_non_local_coeffs: call_update: 0 [ms]
[OGL LOG][Proc: 0]Uy: update_local_matrix_data: 315.897 [ms]
[OGL LOG][Proc: 0]Uy: update_non_local_matrix_data: 0.795 [ms]
[OGL LOG][Proc: 0]Uy_matrix: call_update: 3.932 [ms]
[OGL LOG][Proc: 0]Uy_rhs: call_update: 15.696 [ms]
[OGL LOG][Preconditioner.H:121] Generate preconditioner BJ MaxBlockSize 1
[OGL LOG][Proc: 0]Uy: init_precond: 2.21 [ms]
[OGL LOG][StoppingCriterion.H:239] Creating stopping criterion with minIter 3 frequency 1
[OGL LOG][Proc: 0]Uy: generate_solver: 0.016 [ms]
[OGL LOG][Proc: 0]Uy: solve: 287.539 [ms]
[OGL LOG][Proc: 0]Uy: copy_x_back: 25.737 [ms]
[OGL LOG][lduLduBase.H:330] 
Statistics:
	Time per iteration: 143769 [mu s]
	Time per residual norm calculation: 184.000000 [mu s]
	Time per iteration and DOF: 5.698664 [ns]
	Retrieve results bandwidth 1.962000 [GByte/s]
[OGL LOG][Proc: 0]Uy: solve_multi_gpu: 338.529 [ms]
BJcudaGKOBiCGStab:  Solving for Uy, Initial residual = 0.6068460652432593, Final residual = 0.03197869370506009, No Iterations 2
[OGL LOG][Proc: 0]: global_index_init: 0.036 [ms]
[OGL LOG][Proc: 0]Uz_local_coeffs: call_update: 0 [ms]
[OGL LOG][Proc: 0]Uz_non_local_coeffs: call_update: 0 [ms]
[OGL LOG][Proc: 0]Uz: update_local_matrix_data: 315.851 [ms]
[OGL LOG][Proc: 0]Uz: update_non_local_matrix_data: 0.857 [ms]
[OGL LOG][Proc: 0]Uz_matrix: call_update: 3.919 [ms]
[OGL LOG][Proc: 0]Uz_rhs: call_update: 15.764 [ms]
[OGL LOG][Preconditioner.H:121] Generate preconditioner BJ MaxBlockSize 1
[OGL LOG][Proc: 0]Uz: init_precond: 2.165 [ms]
[OGL LOG][StoppingCriterion.H:239] Creating stopping criterion with minIter 3 frequency 1
[OGL LOG][Proc: 0]Uz: generate_solver: 0.015 [ms]
[OGL LOG][Proc: 0]Uz: solve: 286.381 [ms]
[OGL LOG][Proc: 0]Uz: copy_x_back: 25.362 [ms]
[OGL LOG][lduLduBase.H:330] 
Statistics:
	Time per iteration: 143190 [mu s]
	Time per residual norm calculation: 270.000000 [mu s]
	Time per iteration and DOF: 5.675714 [ns]
	Retrieve results bandwidth 1.991000 [GByte/s]
[OGL LOG][Proc: 0]Uz: solve_multi_gpu: 336.894 [ms]
BJcudaGKOBiCGStab:  Solving for Uz, Initial residual = 0.6136097700687426, Final residual = 0.06064962783464137, No Iterations 2
[OGL LOG][Proc: 0]: global_index_init: 0.017 [ms]
[OGL LOG][Proc: 0]p_local_coeffs: call_update: 0 [ms]
[OGL LOG][Proc: 0]p_non_local_coeffs: call_update: 0 [ms]
[OGL LOG][Proc: 0]p: update_local_matrix_data: 243.045 [ms]
[OGL LOG][Proc: 0]p: update_non_local_matrix_data: 0.925 [ms]
[OGL LOG][Proc: 0]p_matrix: call_update: 3.863 [ms]
[OGL LOG][Proc: 0]p_rhs: call_update: 15.764 [ms]
[OGL LOG][Preconditioner.H:271] Generate preconditioner GISAI SparsityPower 1
[OGL LOG][Proc: 0]p: init_precond: 440.231 [ms]
[OGL LOG][StoppingCriterion.H:239] Creating stopping criterion with minIter 600 frequency 5
[OGL LOG][Proc: 0]p: generate_solver: 0.016 [ms]
[OGL LOG][Proc: 0]p: solve: 2989.976 [ms]
[OGL LOG][Proc: 0]p: copy_x_back: 24.358 [ms]
[OGL LOG][lduLduBase.H:330] 
Statistics:
	Time per iteration: 2986 [mu s]
	Time per residual norm calculation: 171.000000 [mu s]
	Time per iteration and DOF: 0.118358 [ns]
	Retrieve results bandwidth 2.073000 [GByte/s]
[OGL LOG][Proc: 0]p: solve_multi_gpu: 3477.991 [ms]
GISAIcudaGKOCG:  Solving for p, Initial residual = 0.9999999997959577, Final residual = 0.9999999997859483, No Iterations 1001
time step continuity errors : sum local = 263.5391347031223, global = -0.005794881287445213, cumulative = -0.03343184415239623
[OGL LOG][Proc: 0]: global_index_init: 0.019 [ms]
[OGL LOG][Proc: 0]nuTilda_local_coeffs: call_update: 0 [ms]
[OGL LOG][Proc: 0]nuTilda_non_local_coeffs: call_update: 0 [ms]
[OGL LOG][Proc: 0]nuTilda: update_local_matrix_data: 316.555 [ms]
[OGL LOG][Proc: 0]nuTilda: update_non_local_matrix_data: 0.846 [ms]
[OGL LOG][Proc: 0]nuTilda_matrix: call_update: 4.01 [ms]
[OGL LOG][Proc: 0]nuTilda_rhs: call_update: 15.57 [ms]
[OGL LOG][Preconditioner.H:121] Generate preconditioner BJ MaxBlockSize 1
[OGL LOG][Proc: 0]nuTilda: init_precond: 2.073 [ms]
[OGL LOG][StoppingCriterion.H:239] Creating stopping criterion with minIter 7 frequency 1
[OGL LOG][Proc: 0]nuTilda: generate_solver: 0.018 [ms]
[OGL LOG][Proc: 0]nuTilda: solve: 306.504 [ms]
[OGL LOG][Proc: 0]nuTilda: copy_x_back: 25.149 [ms]
[OGL LOG][lduLduBase.H:330] 
Statistics:
	Time per iteration: 43786 [mu s]
	Time per residual norm calculation: 162.000000 [mu s]
	Time per iteration and DOF: 1.735574 [ns]
	Retrieve results bandwidth 2.008000 [GByte/s]
[OGL LOG][Proc: 0]nuTilda: solve_multi_gpu: 356.599 [ms]
BJcudaGKOBiCGStab:  Solving for nuTilda, Initial residual = 0.2444292171063518, Final residual = 0.02136059954457706, No Iterations 7
bounding nuTilda, min: -0.0005507142088426211 max: 0.3887143680090366 average: 0.0003483871835381139
ExecutionTime = 1709.37 s  ClockTime = 1712 s

Time = 10

velocityDampingConstraint velocityDamping damped 260708 (1.03%) of cells, with max limit 300
[OGL LOG][Proc: 0]: global_index_init: 0.015 [ms]
[OGL LOG][Proc: 0]Ux_local_coeffs: call_update: 0 [ms]
[OGL LOG][Proc: 0]Ux_non_local_coeffs: call_update: 0 [ms]
[OGL LOG][Proc: 0]Ux: update_local_matrix_data: 316.426 [ms]
[OGL LOG][Proc: 0]Ux: update_non_local_matrix_data: 0.981 [ms]
[OGL LOG][Proc: 0]Ux_matrix: call_update: 3.524 [ms]
[OGL LOG][Proc: 0]Ux_rhs: call_update: 15.672 [ms]
[OGL LOG][Preconditioner.H:121] Generate preconditioner BJ MaxBlockSize 1
[OGL LOG][Proc: 0]Ux: init_precond: 2.185 [ms]
[OGL LOG][StoppingCriterion.H:239] Creating stopping criterion with minIter 3 frequency 1
[OGL LOG][Proc: 0]Ux: generate_solver: 0.024 [ms]
[OGL LOG][Proc: 0]Ux: solve: 289.309 [ms]
[OGL LOG][Proc: 0]Ux: copy_x_back: 25.292 [ms]
[OGL LOG][lduLduBase.H:330] 
Statistics:
	Time per iteration: 144654 [mu s]
	Time per residual norm calculation: 183.000000 [mu s]
	Time per iteration and DOF: 5.733743 [ns]
	Retrieve results bandwidth 1.996000 [GByte/s]
[OGL LOG][Proc: 0]Ux: solve_multi_gpu: 339.584 [ms]
BJcudaGKOBiCGStab:  Solving for Ux, Initial residual = 0.5882734071872242, Final residual = 0.04191858973329646, No Iterations 2
[OGL LOG][Proc: 0]: global_index_init: 0.013 [ms]
[OGL LOG][Proc: 0]Uy_local_coeffs: call_update: 0 [ms]
[OGL LOG][Proc: 0]Uy_non_local_coeffs: call_update: 0 [ms]
[OGL LOG][Proc: 0]Uy: update_local_matrix_data: 314.176 [ms]
[OGL LOG][Proc: 0]Uy: update_non_local_matrix_data: 0.882 [ms]
[OGL LOG][Proc: 0]Uy_matrix: call_update: 3.91 [ms]
[OGL LOG][Proc: 0]Uy_rhs: call_update: 15.896 [ms]
[OGL LOG][Preconditioner.H:121] Generate preconditioner BJ MaxBlockSize 1
[OGL LOG][Proc: 0]Uy: init_precond: 2.166 [ms]
[OGL LOG][StoppingCriterion.H:239] Creating stopping criterion with minIter 3 frequency 1
[OGL LOG][Proc: 0]Uy: generate_solver: 0.014 [ms]
[OGL LOG][Proc: 0]Uy: solve: 289.786 [ms]
[OGL LOG][Proc: 0]Uy: copy_x_back: 25.053 [ms]
[OGL LOG][lduLduBase.H:330] 
Statistics:
	Time per iteration: 144893 [mu s]
	Time per residual norm calculation: 177.000000 [mu s]
	Time per iteration and DOF: 5.743217 [ns]
	Retrieve results bandwidth 2.016000 [GByte/s]
[OGL LOG][Proc: 0]Uy: solve_multi_gpu: 340.206 [ms]
BJcudaGKOBiCGStab:  Solving for Uy, Initial residual = 0.5164770368028531, Final residual = 0.02491510559955885, No Iterations 2
[OGL LOG][Proc: 0]: global_index_init: 0.012 [ms]
[OGL LOG][Proc: 0]Uz_local_coeffs: call_update: 0 [ms]
[OGL LOG][Proc: 0]Uz_non_local_coeffs: call_update: 0 [ms]
[OGL LOG][Proc: 0]Uz: update_local_matrix_data: 314.904 [ms]
[OGL LOG][Proc: 0]Uz: update_non_local_matrix_data: 0.856 [ms]
[OGL LOG][Proc: 0]Uz_matrix: call_update: 4.034 [ms]
[OGL LOG][Proc: 0]Uz_rhs: call_update: 15.428 [ms]
[OGL LOG][Preconditioner.H:121] Generate preconditioner BJ MaxBlockSize 1
[OGL LOG][Proc: 0]Uz: init_precond: 2.01 [ms]
[OGL LOG][StoppingCriterion.H:239] Creating stopping criterion with minIter 2 frequency 1
[OGL LOG][Proc: 0]Uz: generate_solver: 0.015 [ms]
[OGL LOG][Proc: 0]Uz: solve: 289.506 [ms]
[OGL LOG][Proc: 0]Uz: copy_x_back: 25.515 [ms]
[OGL LOG][lduLduBase.H:330] 
Statistics:
	Time per iteration: 96502 [mu s]
	Time per residual norm calculation: 277.000000 [mu s]
	Time per iteration and DOF: 3.825112 [ns]
	Retrieve results bandwidth 1.979000 [GByte/s]
[OGL LOG][Proc: 0]Uz: solve_multi_gpu: 339.888 [ms]
BJcudaGKOBiCGStab:  Solving for Uz, Initial residual = 0.5552870157876609, Final residual = 0.04992816267737871, No Iterations 3
[OGL LOG][Proc: 0]: global_index_init: 0.017 [ms]
[OGL LOG][Proc: 0]p_local_coeffs: call_update: 0 [ms]
[OGL LOG][Proc: 0]p_non_local_coeffs: call_update: 0 [ms]
[OGL LOG][Proc: 0]p: update_local_matrix_data: 243.045 [ms]
[OGL LOG][Proc: 0]p: update_non_local_matrix_data: 0.923 [ms]
[OGL LOG][Proc: 0]p_matrix: call_update: 3.97 [ms]
[OGL LOG][Proc: 0]p_rhs: call_update: 15.697 [ms]
[OGL LOG][Preconditioner.H:271] Generate preconditioner GISAI SparsityPower 1
[OGL LOG][Proc: 0]p: init_precond: 448.156 [ms]
[OGL LOG][StoppingCriterion.H:239] Creating stopping criterion with minIter 600 frequency 4
[OGL LOG][Proc: 0]p: generate_solver: 0.017 [ms]
[OGL LOG][Proc: 0]p: solve: 2991.918 [ms]
[OGL LOG][Proc: 0]p: copy_x_back: 24.457 [ms]
[OGL LOG][lduLduBase.H:330] 
Statistics:
	Time per iteration: 2988 [mu s]
	Time per residual norm calculation: 165.000000 [mu s]
	Time per iteration and DOF: 0.118437 [ns]
	Retrieve results bandwidth 2.065000 [GByte/s]
[OGL LOG][Proc: 0]p: solve_multi_gpu: 3487.843 [ms]
GISAIcudaGKOCG:  Solving for p, Initial residual = 0.9999999995515021, Final residual = 0.9999999995728139, No Iterations 1001
time step continuity errors : sum local = 97.72623585349865, global = -0.006207024765261974, cumulative = -0.03963886891765821
[OGL LOG][Proc: 0]: global_index_init: 0.02 [ms]
[OGL LOG][Proc: 0]nuTilda_local_coeffs: call_update: 0 [ms]
[OGL LOG][Proc: 0]nuTilda_non_local_coeffs: call_update: 0 [ms]
[OGL LOG][Proc: 0]nuTilda: update_local_matrix_data: 315.952 [ms]
[OGL LOG][Proc: 0]nuTilda: update_non_local_matrix_data: 0.884 [ms]
[OGL LOG][Proc: 0]nuTilda_matrix: call_update: 3.909 [ms]
[OGL LOG][Proc: 0]nuTilda_rhs: call_update: 15.404 [ms]
[OGL LOG][Preconditioner.H:121] Generate preconditioner BJ MaxBlockSize 1
[OGL LOG][Proc: 0]nuTilda: init_precond: 2.184 [ms]
[OGL LOG][StoppingCriterion.H:239] Creating stopping criterion with minIter 9 frequency 1
[OGL LOG][Proc: 0]nuTilda: generate_solver: 0.014 [ms]
[OGL LOG][Proc: 0]nuTilda: solve: 304.368 [ms]
[OGL LOG][Proc: 0]nuTilda: copy_x_back: 25.508 [ms]
[OGL LOG][lduLduBase.H:330] 
Statistics:
	Time per iteration: 50728 [mu s]
	Time per residual norm calculation: 181.000000 [mu s]
	Time per iteration and DOF: 2.010738 [ns]
	Retrieve results bandwidth 1.980000 [GByte/s]
[OGL LOG][Proc: 0]nuTilda: solve_multi_gpu: 354.751 [ms]
BJcudaGKOBiCGStab:  Solving for nuTilda, Initial residual = 0.267400339522372, Final residual = 0.0156986114964626, No Iterations 6
ExecutionTime = 1739.14 s  ClockTime = 1742 s

Time = 11

velocityDampingConstraint velocityDamping damped 274994 (1.09%) of cells, with max limit 300
[OGL LOG][Proc: 0]: global_index_init: 0.051 [ms]
[OGL LOG][Proc: 0]Ux_local_coeffs: call_update: 0 [ms]
[OGL LOG][Proc: 0]Ux_non_local_coeffs: call_update: 0 [ms]
[OGL LOG][Proc: 0]Ux: update_local_matrix_data: 315.673 [ms]
[OGL LOG][Proc: 0]Ux: update_non_local_matrix_data: 0.772 [ms]
[OGL LOG][Proc: 0]Ux_matrix: call_update: 4.039 [ms]
[OGL LOG][Proc: 0]Ux_rhs: call_update: 15.854 [ms]
[OGL LOG][Preconditioner.H:121] Generate preconditioner BJ MaxBlockSize 1
[OGL LOG][Proc: 0]Ux: init_precond: 2.163 [ms]
[OGL LOG][StoppingCriterion.H:239] Creating stopping criterion with minIter 3 frequency 1
[OGL LOG][Proc: 0]Ux: generate_solver: 0.015 [ms]
[OGL LOG][Proc: 0]Ux: solve: 299.08 [ms]
[OGL LOG][Proc: 0]Ux: copy_x_back: 25.471 [ms]
[OGL LOG][lduLduBase.H:330] 
Statistics:
	Time per iteration: 59816 [mu s]
	Time per residual norm calculation: 262.000000 [mu s]
	Time per iteration and DOF: 2.370965 [ns]
	Retrieve results bandwidth 1.982000 [GByte/s]
[OGL LOG][Proc: 0]Ux: solve_multi_gpu: 349.945 [ms]
BJcudaGKOBiCGStab:  Solving for Ux, Initial residual = 0.4628931833255518, Final residual = 0.008549639533717906, No Iterations 5
[OGL LOG][Proc: 0]: global_index_init: 0.014 [ms]
[OGL LOG][Proc: 0]Uy_local_coeffs: call_update: 0 [ms]
[OGL LOG][Proc: 0]Uy_non_local_coeffs: call_update: 0 [ms]
[OGL LOG][Proc: 0]Uy: update_local_matrix_data: 315.914 [ms]
[OGL LOG][Proc: 0]Uy: update_non_local_matrix_data: 0.78 [ms]
[OGL LOG][Proc: 0]Uy_matrix: call_update: 4.323 [ms]
[OGL LOG][Proc: 0]Uy_rhs: call_update: 15.641 [ms]
[OGL LOG][Preconditioner.H:121] Generate preconditioner BJ MaxBlockSize 1
[OGL LOG][Proc: 0]Uy: init_precond: 2.186 [ms]
[OGL LOG][StoppingCriterion.H:239] Creating stopping criterion with minIter 3 frequency 1
[OGL LOG][Proc: 0]Uy: generate_solver: 0.014 [ms]
[OGL LOG][Proc: 0]Uy: solve: 291.675 [ms]
[OGL LOG][Proc: 0]Uy: copy_x_back: 25.485 [ms]
[OGL LOG][lduLduBase.H:330] 
Statistics:
	Time per iteration: 145837 [mu s]
	Time per residual norm calculation: 180.000000 [mu s]
[...]
	Time per iteration and DOF: 0.118398 [ns]
	Retrieve results bandwidth 2.054000 [GByte/s]
[OGL LOG][Proc: 0]p: solve_multi_gpu: 3480.52 [ms]
GISAIcudaGKOCG:  Solving for p, Initial residual = 0.9999999958624733, Final residual = 0.9999999956214284, No Iterations 1001
time step continuity errors : sum local = 5795.882642830104, global = -0.02238852778258914, cumulative = -1.478498399632862
[OGL LOG][Proc: 0]: global_index_init: 0.018 [ms]
[OGL LOG][Proc: 0]nuTilda_local_coeffs: call_update: 0 [ms]
[OGL LOG][Proc: 0]nuTilda_non_local_coeffs: call_update: 0 [ms]
[OGL LOG][Proc: 0]nuTilda: update_local_matrix_data: 316.15 [ms]
[OGL LOG][Proc: 0]nuTilda: update_non_local_matrix_data: 0.832 [ms]
[OGL LOG][Proc: 0]nuTilda_matrix: call_update: 3.879 [ms]
[OGL LOG][Proc: 0]nuTilda_rhs: call_update: 15.66 [ms]
[OGL LOG][Preconditioner.H:121] Generate preconditioner BJ MaxBlockSize 1
[OGL LOG][Proc: 0]nuTilda: init_precond: 2.018 [ms]
[OGL LOG][StoppingCriterion.H:239] Creating stopping criterion with minIter 4 frequency 1
[OGL LOG][Proc: 0]nuTilda: generate_solver: 0.017 [ms]
[OGL LOG][Proc: 0]nuTilda: solve: 302.993 [ms]
[OGL LOG][Proc: 0]nuTilda: copy_x_back: 25.013 [ms]
[OGL LOG][lduLduBase.H:330] 
Statistics:
	Time per iteration: 50498 [mu s]
	Time per residual norm calculation: 263.000000 [mu s]
	Time per iteration and DOF: 2.001622 [ns]
	Retrieve results bandwidth 2.019000 [GByte/s]
[OGL LOG][Proc: 0]nuTilda: solve_multi_gpu: 352.949 [ms]
BJcudaGKOBiCGStab:  Solving for nuTilda, Initial residual = 0.1428811695220876, Final residual = 0.002162339383035273, No Iterations 6
ExecutionTime = 4331.27 s  ClockTime = 4340 s

Time = 98

velocityDampingConstraint velocityDamping damped 320005 (1.27%) of cells, with max limit 300
[OGL LOG][Proc: 0]: global_index_init: 0.042 [ms]
[OGL LOG][Proc: 0]Ux_local_coeffs: call_update: 0 [ms]
[OGL LOG][Proc: 0]Ux_non_local_coeffs: call_update: 0 [ms]
[OGL LOG][Proc: 0]Ux: update_local_matrix_data: 316.054 [ms]
[OGL LOG][Proc: 0]Ux: update_non_local_matrix_data: 0.922 [ms]
[OGL LOG][Proc: 0]Ux_matrix: call_update: 3.965 [ms]
[OGL LOG][Proc: 0]Ux_rhs: call_update: 15.466 [ms]
[OGL LOG][Preconditioner.H:121] Generate preconditioner BJ MaxBlockSize 1
[OGL LOG][Proc: 0]Ux: init_precond: 2.232 [ms]
[OGL LOG][StoppingCriterion.H:239] Creating stopping criterion with minIter 5 frequency 1
[OGL LOG][Proc: 0]Ux: generate_solver: 0.014 [ms]
[OGL LOG][Proc: 0]Ux: solve: 291.413 [ms]
[OGL LOG][Proc: 0]Ux: copy_x_back: 25.377 [ms]
[OGL LOG][lduLduBase.H:330] 
Statistics:
	Time per iteration: 97137 [mu s]
	Time per residual norm calculation: 270.000000 [mu s]
	Time per iteration and DOF: 3.850282 [ns]
	Retrieve results bandwidth 1.990000 [GByte/s]
[OGL LOG][Proc: 0]Ux: solve_multi_gpu: 341.821 [ms]
BJcudaGKOBiCGStab:  Solving for Ux, Initial residual = 0.621402438688307, Final residual = 0.01116936783316986, No Iterations 3
[OGL LOG][Proc: 0]: global_index_init: 0.014 [ms]
[OGL LOG][Proc: 0]Uy_local_coeffs: call_update: 0 [ms]
[OGL LOG][Proc: 0]Uy_non_local_coeffs: call_update: 0 [ms]
[OGL LOG][Proc: 0]Uy: update_local_matrix_data: 316.137 [ms]
[OGL LOG][Proc: 0]Uy: update_non_local_matrix_data: 0.8 [ms]
[OGL LOG][Proc: 0]Uy_matrix: call_update: 4.141 [ms]
[OGL LOG][Proc: 0]Uy_rhs: call_update: 15.856 [ms]
[OGL LOG][Preconditioner.H:121] Generate preconditioner BJ MaxBlockSize 1
[OGL LOG][Proc: 0]Uy: init_precond: 2.433 [ms]
[OGL LOG][StoppingCriterion.H:239] Creating stopping criterion with minIter 4 frequency 1
[OGL LOG][Proc: 0]Uy: generate_solver: 0.016 [ms]
[OGL LOG][Proc: 0]Uy: solve: 292.517 [ms]
[OGL LOG][Proc: 0]Uy: copy_x_back: 25.069 [ms]
[OGL LOG][lduLduBase.H:330] 
Statistics:
	Time per iteration: 97505 [mu s]
	Time per residual norm calculation: 182.000000 [mu s]
	Time per iteration and DOF: 3.864868 [ns]
	Retrieve results bandwidth 2.014000 [GByte/s]
[OGL LOG][Proc: 0]Uy: solve_multi_gpu: 343.341 [ms]
BJcudaGKOBiCGStab:  Solving for Uy, Initial residual = 0.6182524822906443, Final residual = 0.04486007489417922, No Iterations 3
[OGL LOG][Proc: 0]: global_index_init: 0.022 [ms]
[OGL LOG][Proc: 0]Uz_local_coeffs: call_update: 0 [ms]
[OGL LOG][Proc: 0]Uz_non_local_coeffs: call_update: 0 [ms]
[OGL LOG][Proc: 0]Uz: update_local_matrix_data: 315.655 [ms]
[OGL LOG][Proc: 0]Uz: update_non_local_matrix_data: 0.786 [ms]
[OGL LOG][Proc: 0]Uz_matrix: call_update: 3.818 [ms]
[OGL LOG][Proc: 0]Uz_rhs: call_update: 15.269 [ms]
[OGL LOG][Preconditioner.H:121] Generate preconditioner BJ MaxBlockSize 1
[OGL LOG][Proc: 0]Uz: init_precond: 2.331 [ms]
[OGL LOG][StoppingCriterion.H:239] Creating stopping criterion with minIter 3 frequency 1
[OGL LOG][Proc: 0]Uz: generate_solver: 0.014 [ms]
[OGL LOG][Proc: 0]Uz: solve: 298.435 [ms]
[OGL LOG][Proc: 0]Uz: copy_x_back: 25.571 [ms]
[OGL LOG][lduLduBase.H:330] 
Statistics:
	Time per iteration: 59687 [mu s]
	Time per residual norm calculation: 264.000000 [mu s]
	Time per iteration and DOF: 2.365852 [ns]
	Retrieve results bandwidth 1.975000 [GByte/s]
[OGL LOG][Proc: 0]Uz: solve_multi_gpu: 348.794 [ms]
BJcudaGKOBiCGStab:  Solving for Uz, Initial residual = 0.6492336505457952, Final residual = 0.04694418181175639, No Iterations 5
[OGL LOG][Proc: 0]: global_index_init: 0.016 [ms]
[OGL LOG][Proc: 0]p_local_coeffs: call_update: 0 [ms]
[OGL LOG][Proc: 0]p_non_local_coeffs: call_update: 0 [ms]
[OGL LOG][Proc: 0]p: update_local_matrix_data: 244.951 [ms]
[OGL LOG][Proc: 0]p: update_non_local_matrix_data: 0.884 [ms]
[OGL LOG][Proc: 0]p_matrix: call_update: 3.716 [ms]
[OGL LOG][Proc: 0]p_rhs: call_update: 16.328 [ms]
[OGL LOG][Preconditioner.H:271] Generate preconditioner GISAI SparsityPower 1
[OGL LOG][Proc: 0]p: init_precond: 443.519 [ms]
[OGL LOG][StoppingCriterion.H:239] Creating stopping criterion with minIter 600 frequency 4
[OGL LOG][Proc: 0]p: generate_solver: 0.019 [ms]
[OGL LOG][Proc: 0]p: solve: 2994.463 [ms]
[OGL LOG][Proc: 0]p: copy_x_back: 24.409 [ms]
[OGL LOG][lduLduBase.H:330] 
Statistics:
	Time per iteration: 2991 [mu s]
	Time per residual norm calculation: 167.000000 [mu s]
	Time per iteration and DOF: 0.118556 [ns]
	Retrieve results bandwidth 2.069000 [GByte/s]
[OGL LOG][Proc: 0]p: solve_multi_gpu: 3486.272 [ms]
GISAIcudaGKOCG:  Solving for p, Initial residual = 0.9999999937492411, Final residual = 0.9999999946803758, No Iterations 1001
time step continuity errors : sum local = 3658.83504346249, global = -0.02253362659459664, cumulative = -1.501032026227459
[OGL LOG][Proc: 0]: global_index_init: 0.025 [ms]
[OGL LOG][Proc: 0]nuTilda_local_coeffs: call_update: 0 [ms]
[OGL LOG][Proc: 0]nuTilda_non_local_coeffs: call_update: 0 [ms]
[OGL LOG][Proc: 0]nuTilda: update_local_matrix_data: 316.475 [ms]
[OGL LOG][Proc: 0]nuTilda: update_non_local_matrix_data: 0.908 [ms]
[OGL LOG][Proc: 0]nuTilda_matrix: call_update: 3.818 [ms]
[OGL LOG][Proc: 0]nuTilda_rhs: call_update: 15.591 [ms]
[OGL LOG][Preconditioner.H:121] Generate preconditioner BJ MaxBlockSize 1
[OGL LOG][Proc: 0]nuTilda: init_precond: 2.252 [ms]
[OGL LOG][StoppingCriterion.H:239] Creating stopping criterion with minIter 7 frequency 1
[OGL LOG][Proc: 0]nuTilda: generate_solver: 0.02 [ms]
[OGL LOG][Proc: 0]nuTilda: solve: 296.526 [ms]
[OGL LOG][Proc: 0]nuTilda: copy_x_back: 25.478 [ms]
[OGL LOG][lduLduBase.H:330] 
Statistics:
	Time per iteration: 74131 [mu s]
	Time per residual norm calculation: 281.000000 [mu s]
	Time per iteration and DOF: 2.938378 [ns]
	Retrieve results bandwidth 1.982000 [GByte/s]
[OGL LOG][Proc: 0]nuTilda: solve_multi_gpu: 347.113 [ms]
BJcudaGKOBiCGStab:  Solving for nuTilda, Initial residual = 0.1303583728782224, Final residual = 0.01096053763824786, No Iterations 4
bounding nuTilda, min: -0.000505410490889063 max: 45989.926750449 average: 0.4653725058797474
ExecutionTime = 4361.04 s  ClockTime = 4370 s

Time = 99

velocityDampingConstraint velocityDamping damped 321818 (1.28%) of cells, with max limit 300
[OGL LOG][Proc: 0]: global_index_init: 0.074 [ms]
[OGL LOG][Proc: 0]Ux_local_coeffs: call_update: 0 [ms]
[OGL LOG][Proc: 0]Ux_non_local_coeffs: call_update: 0 [ms]
[OGL LOG][Proc: 0]Ux: update_local_matrix_data: 318.612 [ms]
[OGL LOG][Proc: 0]Ux: update_non_local_matrix_data: 0.884 [ms]
[OGL LOG][Proc: 0]Ux_matrix: call_update: 3.667 [ms]
[OGL LOG][Proc: 0]Ux_rhs: call_update: 15.742 [ms]
[OGL LOG][Preconditioner.H:121] Generate preconditioner BJ MaxBlockSize 1
[OGL LOG][Proc: 0]Ux: init_precond: 2.208 [ms]
[OGL LOG][StoppingCriterion.H:239] Creating stopping criterion with minIter 3 frequency 1
[OGL LOG][Proc: 0]Ux: generate_solver: 0.016 [ms]
[OGL LOG][Proc: 0]Ux: solve: 289.887 [ms]
[OGL LOG][Proc: 0]Ux: copy_x_back: 25.427 [ms]
[OGL LOG][lduLduBase.H:330] 
Statistics:
	Time per iteration: 144943 [mu s]
	Time per residual norm calculation: 175.000000 [mu s]
	Time per iteration and DOF: 5.745199 [ns]
	Retrieve results bandwidth 1.986000 [GByte/s]
[OGL LOG][Proc: 0]Ux: solve_multi_gpu: 340.349 [ms]
BJcudaGKOBiCGStab:  Solving for Ux, Initial residual = 0.561467847815278, Final residual = 0.02629699896008104, No Iterations 2
[OGL LOG][Proc: 0]: global_index_init: 0.039 [ms]
[OGL LOG][Proc: 0]Uy_local_coeffs: call_update: 0 [ms]
[OGL LOG][Proc: 0]Uy_non_local_coeffs: call_update: 0 [ms]
[OGL LOG][Proc: 0]Uy: update_local_matrix_data: 316.332 [ms]
[OGL LOG][Proc: 0]Uy: update_non_local_matrix_data: 0.851 [ms]
[OGL LOG][Proc: 0]Uy_matrix: call_update: 3.661 [ms]
[OGL LOG][Proc: 0]Uy_rhs: call_update: 16.04 [ms]
[OGL LOG][Preconditioner.H:121] Generate preconditioner BJ MaxBlockSize 1
[OGL LOG][Proc: 0]Uy: init_precond: 2.238 [ms]
[OGL LOG][StoppingCriterion.H:239] Creating stopping criterion with minIter 4 frequency 1
[OGL LOG][Proc: 0]Uy: generate_solver: 0.014 [ms]
[OGL LOG][Proc: 0]Uy: solve: 289.273 [ms]
[OGL LOG][Proc: 0]Uy: copy_x_back: 25.728 [ms]
[OGL LOG][lduLduBase.H:330] 
Statistics:
	Time per iteration: 144636 [mu s]
	Time per residual norm calculation: 190.000000 [mu s]
	Time per iteration and DOF: 5.733030 [ns]
	Retrieve results bandwidth 1.963000 [GByte/s]
[OGL LOG][Proc: 0]Uy: solve_multi_gpu: 340.326 [ms]
BJcudaGKOBiCGStab:  Solving for Uy, Initial residual = 0.586479896321375, Final residual = 0.03891997280993958, No Iterations 2
[OGL LOG][Proc: 0]: global_index_init: 0.015 [ms]
[OGL LOG][Proc: 0]Uz_local_coeffs: call_update: 0 [ms]
[OGL LOG][Proc: 0]Uz_non_local_coeffs: call_update: 0 [ms]
[OGL LOG][Proc: 0]Uz: update_local_matrix_data: 316.665 [ms]
[OGL LOG][Proc: 0]Uz: update_non_local_matrix_data: 0.853 [ms]
[OGL LOG][Proc: 0]Uz_matrix: call_update: 3.928 [ms]
[OGL LOG][Proc: 0]Uz_rhs: call_update: 15.556 [ms]
[OGL LOG][Preconditioner.H:121] Generate preconditioner BJ MaxBlockSize 1
[OGL LOG][Proc: 0]Uz: init_precond: 2.408 [ms]
[OGL LOG][StoppingCriterion.H:239] Creating stopping criterion with minIter 6 frequency 1
[OGL LOG][Proc: 0]Uz: generate_solver: 0.016 [ms]
[OGL LOG][Proc: 0]Uz: solve: 291.313 [ms]
[OGL LOG][Proc: 0]Uz: copy_x_back: 25.213 [ms]
[OGL LOG][lduLduBase.H:330] 
Statistics:
	Time per iteration: 97104 [mu s]
	Time per residual norm calculation: 196.000000 [mu s]
	Time per iteration and DOF: 3.848974 [ns]
	Retrieve results bandwidth 2.003000 [GByte/s]
[OGL LOG][Proc: 0]Uz: solve_multi_gpu: 341.771 [ms]
BJcudaGKOBiCGStab:  Solving for Uz, Initial residual = 0.4806991920034405, Final residual = 0.003971713499568228, No Iterations 3
[OGL LOG][Proc: 0]: global_index_init: 0.016 [ms]
[OGL LOG][Proc: 0]p_local_coeffs: call_update: 0 [ms]
[OGL LOG][Proc: 0]p_non_local_coeffs: call_update: 0 [ms]
[OGL LOG][Proc: 0]p: update_local_matrix_data: 245.253 [ms]
[OGL LOG][Proc: 0]p: update_non_local_matrix_data: 0.949 [ms]
[OGL LOG][Proc: 0]p_matrix: call_update: 3.642 [ms]
[OGL LOG][Proc: 0]p_rhs: call_update: 15.887 [ms]
[OGL LOG][Preconditioner.H:271] Generate preconditioner GISAI SparsityPower 1
[OGL LOG][Proc: 0]p: init_precond: 453.941 [ms]
[OGL LOG][StoppingCriterion.H:239] Creating stopping criterion with minIter 600 frequency 4
[OGL LOG][Proc: 0]p: generate_solver: 0.015 [ms]
[OGL LOG][Proc: 0]p: solve: 2994.557 [ms]
[OGL LOG][Proc: 0]p: copy_x_back: 24.748 [ms]
[OGL LOG][lduLduBase.H:330] 
Statistics:
	Time per iteration: 2991 [mu s]
	Time per residual norm calculation: 172.000000 [mu s]
	Time per iteration and DOF: 0.118556 [ns]
	Retrieve results bandwidth 2.040000 [GByte/s]
[OGL LOG][Proc: 0]p: solve_multi_gpu: 3496.596 [ms]
GISAIcudaGKOCG:  Solving for p, Initial residual = 0.9999999893461642, Final residual = 0.9999999892655885, No Iterations 1001
time step continuity errors : sum local = 1342.047990605156, global = -0.02264235046741339, cumulative = -1.523674376694872
[OGL LOG][Proc: 0]: global_index_init: 0.018 [ms]
[OGL LOG][Proc: 0]nuTilda_local_coeffs: call_update: 0 [ms]
[OGL LOG][Proc: 0]nuTilda_non_local_coeffs: call_update: 0 [ms]
[OGL LOG][Proc: 0]nuTilda: update_local_matrix_data: 316.299 [ms]
[OGL LOG][Proc: 0]nuTilda: update_non_local_matrix_data: 0.85 [ms]
[OGL LOG][Proc: 0]nuTilda_matrix: call_update: 4.005 [ms]
[OGL LOG][Proc: 0]nuTilda_rhs: call_update: 15.633 [ms]
[OGL LOG][Preconditioner.H:121] Generate preconditioner BJ MaxBlockSize 1
[OGL LOG][Proc: 0]nuTilda: init_precond: 2.01 [ms]
[OGL LOG][StoppingCriterion.H:239] Creating stopping criterion with minIter 4 frequency 1
[OGL LOG][Proc: 0]nuTilda: generate_solver: 0.018 [ms]
[OGL LOG][Proc: 0]nuTilda: solve: 291.153 [ms]
[OGL LOG][Proc: 0]nuTilda: copy_x_back: 25.345 [ms]
[OGL LOG][lduLduBase.H:330] 
Statistics:
	Time per iteration: 97051 [mu s]
	Time per residual norm calculation: 271.000000 [mu s]
	Time per iteration and DOF: 3.846873 [ns]
	Retrieve results bandwidth 1.992000 [GByte/s]
[OGL LOG][Proc: 0]nuTilda: solve_multi_gpu: 341.543 [ms]
BJcudaGKOBiCGStab:  Solving for nuTilda, Initial residual = 0.1542361457979944, Final residual = 0.007425589069203117, No Iterations 3
ExecutionTime = 4390.51 s  ClockTime = 4400 s

Time = 100

velocityDampingConstraint velocityDamping damped 325453 (1.29%) of cells, with max limit 300
[OGL LOG][Proc: 0]: global_index_init: 0.016 [ms]
[OGL LOG][Proc: 0]Ux_local_coeffs: call_update: 0 [ms]
[OGL LOG][Proc: 0]Ux_non_local_coeffs: call_update: 0 [ms]
[OGL LOG][Proc: 0]Ux: update_local_matrix_data: 315.667 [ms]
[OGL LOG][Proc: 0]Ux: update_non_local_matrix_data: 0.885 [ms]
[OGL LOG][Proc: 0]Ux_matrix: call_update: 3.588 [ms]
[OGL LOG][Proc: 0]Ux_rhs: call_update: 15.742 [ms]
[OGL LOG][Preconditioner.H:121] Generate preconditioner BJ MaxBlockSize 1
[OGL LOG][Proc: 0]Ux: init_precond: 2.119 [ms]
[OGL LOG][StoppingCriterion.H:239] Creating stopping criterion with minIter 3 frequency 1
[OGL LOG][Proc: 0]Ux: generate_solver: 0.023 [ms]
[OGL LOG][Proc: 0]Ux: solve: 298.348 [ms]
[OGL LOG][Proc: 0]Ux: copy_x_back: 25.154 [ms]
[OGL LOG][lduLduBase.H:330] 
Statistics:
	Time per iteration: 99449 [mu s]
	Time per residual norm calculation: 270.000000 [mu s]
	Time per iteration and DOF: 3.941924 [ns]
	Retrieve results bandwidth 2.007000 [GByte/s]
[OGL LOG][Proc: 0]Ux: solve_multi_gpu: 347.588 [ms]
BJcudaGKOBiCGStab:  Solving for Ux, Initial residual = 0.4562472343612519, Final residual = 0.009713954448699684, No Iterations 3
[OGL LOG][Proc: 0]: global_index_init: 1.477 [ms]
[OGL LOG][Proc: 0]Uy_local_coeffs: call_update: 0 [ms]
[OGL LOG][Proc: 0]Uy_non_local_coeffs: call_update: 0 [ms]
[OGL LOG][Proc: 0]Uy: update_local_matrix_data: 315.403 [ms]
[OGL LOG][Proc: 0]Uy: update_non_local_matrix_data: 0.887 [ms]
[OGL LOG][Proc: 0]Uy_matrix: call_update: 3.763 [ms]
[OGL LOG][Proc: 0]Uy_rhs: call_update: 15.987 [ms]
[OGL LOG][Preconditioner.H:121] Generate preconditioner BJ MaxBlockSize 1
[OGL LOG][Proc: 0]Uy: init_precond: 2.233 [ms]
[OGL LOG][StoppingCriterion.H:239] Creating stopping criterion with minIter 3 frequency 1
[OGL LOG][Proc: 0]Uy: generate_solver: 0.015 [ms]
[OGL LOG][Proc: 0]Uy: solve: 289.446 [ms]
[OGL LOG][Proc: 0]Uy: copy_x_back: 25.435 [ms]
[OGL LOG][lduLduBase.H:330] 
Statistics:
	Time per iteration: 144723 [mu s]
	Time per residual norm calculation: 176.000000 [mu s]
	Time per iteration and DOF: 5.736478 [ns]
	Retrieve results bandwidth 1.985000 [GByte/s]
[OGL LOG][Proc: 0]Uy: solve_multi_gpu: 340.119 [ms]
BJcudaGKOBiCGStab:  Solving for Uy, Initial residual = 0.4623643232005116, Final residual = 0.03365810774901803, No Iterations 2
[OGL LOG][Proc: 0]: global_index_init: 0.013 [ms]
[OGL LOG][Proc: 0]Uz_local_coeffs: call_update: 0 [ms]
[OGL LOG][Proc: 0]Uz_non_local_coeffs: call_update: 0 [ms]
[OGL LOG][Proc: 0]Uz: update_local_matrix_data: 315.484 [ms]
[OGL LOG][Proc: 0]Uz: update_non_local_matrix_data: 0.88 [ms]
[OGL LOG][Proc: 0]Uz_matrix: call_update: 3.64 [ms]
[OGL LOG][Proc: 0]Uz_rhs: call_update: 15.779 [ms]
[OGL LOG][Preconditioner.H:121] Generate preconditioner BJ MaxBlockSize 1
[OGL LOG][Proc: 0]Uz: init_precond: 2.022 [ms]
[OGL LOG][StoppingCriterion.H:239] Creating stopping criterion with minIter 4 frequency 1
[OGL LOG][Proc: 0]Uz: generate_solver: 0.014 [ms]
[OGL LOG][Proc: 0]Uz: solve: 288.846 [ms]
[OGL LOG][Proc: 0]Uz: copy_x_back: 25.424 [ms]
[OGL LOG][lduLduBase.H:330] 
Statistics:
	Time per iteration: 144423 [mu s]
	Time per residual norm calculation: 191.000000 [mu s]
	Time per iteration and DOF: 5.724587 [ns]
	Retrieve results bandwidth 1.986000 [GByte/s]
[OGL LOG][Proc: 0]Uz: solve_multi_gpu: 339.074 [ms]
BJcudaGKOBiCGStab:  Solving for Uz, Initial residual = 0.4809676565726999, Final residual = 0.0142684313997696, No Iterations 2
[OGL LOG][Proc: 0]: global_index_init: 0.018 [ms]
[OGL LOG][Proc: 0]p_local_coeffs: call_update: 0 [ms]
[OGL LOG][Proc: 0]p_non_local_coeffs: call_update: 0 [ms]
[OGL LOG][Proc: 0]p: update_local_matrix_data: 243.36 [ms]
[OGL LOG][Proc: 0]p: update_non_local_matrix_data: 0.864 [ms]
[OGL LOG][Proc: 0]p_matrix: call_update: 3.789 [ms]
[OGL LOG][Proc: 0]p_rhs: call_update: 15.603 [ms]
[OGL LOG][Preconditioner.H:271] Generate preconditioner GISAI SparsityPower 1
[OGL LOG][Proc: 0]p: init_precond: 446.659 [ms]
[OGL LOG][StoppingCriterion.H:239] Creating stopping criterion with minIter 600 frequency 4
[OGL LOG][Proc: 0]p: generate_solver: 0.018 [ms]
[OGL LOG][Proc: 0]p: solve: 2991.644 [ms]
[OGL LOG][Proc: 0]p: copy_x_back: 24.236 [ms]
[OGL LOG][lduLduBase.H:330] 
Statistics:
	Time per iteration: 2988 [mu s]
	Time per residual norm calculation: 165.000000 [mu s]
	Time per iteration and DOF: 0.118437 [ns]
	Retrieve results bandwidth 2.083000 [GByte/s]
[OGL LOG][Proc: 0]p: solve_multi_gpu: 3485.563 [ms]
GISAIcudaGKOCG:  Solving for p, Initial residual = 0.999999980746739, Final residual = 0.9999999806707042, No Iterations 1001
time step continuity errors : sum local = 728.9899477510892, global = -0.02277707852103942, cumulative = -1.546451455215912
[OGL LOG][Proc: 0]: global_index_init: 0.018 [ms]
[OGL LOG][Proc: 0]nuTilda_local_coeffs: call_update: 0 [ms]
[OGL LOG][Proc: 0]nuTilda_non_local_coeffs: call_update: 0 [ms]
[OGL LOG][Proc: 0]nuTilda: update_local_matrix_data: 316.274 [ms]
[OGL LOG][Proc: 0]nuTilda: update_non_local_matrix_data: 0.93 [ms]
[OGL LOG][Proc: 0]nuTilda_matrix: call_update: 3.872 [ms]
[OGL LOG][Proc: 0]nuTilda_rhs: call_update: 15.44 [ms]
[OGL LOG][Preconditioner.H:121] Generate preconditioner BJ MaxBlockSize 1
[OGL LOG][Proc: 0]nuTilda: init_precond: 2.136 [ms]
[OGL LOG][StoppingCriterion.H:239] Creating stopping criterion with minIter 3 frequency 1
[OGL LOG][Proc: 0]nuTilda: generate_solver: 0.017 [ms]
[OGL LOG][Proc: 0]nuTilda: solve: 291.797 [ms]
[OGL LOG][Proc: 0]nuTilda: copy_x_back: 25.442 [ms]
[OGL LOG][lduLduBase.H:330] 
Statistics:
	Time per iteration: 145898 [mu s]
	Time per residual norm calculation: 177.000000 [mu s]
	Time per iteration and DOF: 5.783053 [ns]
	Retrieve results bandwidth 1.985000 [GByte/s]
[OGL LOG][Proc: 0]nuTilda: solve_multi_gpu: 342.153 [ms]
BJcudaGKOBiCGStab:  Solving for nuTilda, Initial residual = 0.1158872328257656, Final residual = 0.009538739848418876, No Iterations 2
bounding nuTilda, min: -0.0006230841143479878 max: 37101.09181710322 average: 0.5480098758036143
ExecutionTime = 4420.26 s  ClockTime = 4429 s

End

Finalising parallel run
