/*---------------------------------------------------------------------------*\
| =========                 |                                                 |
| \\      /  F ield         | OpenFOAM: The Open Source CFD Toolbox           |
|  \\    /   O peration     | Version:  2306                                  |
|   \\  /    A nd           | Website:  www.openfoam.com                      |
|    \\/     M anipulation  |                                                 |
\*---------------------------------------------------------------------------*/
Build  : a6e826bd55-20230630 OPENFOAM=2306 version=v2306
Arch   : "LSB;label=32;scalar=64"
Exec   : simpleFoam -parallel -case /home/greole/data/code/exasim_project/micro_benchmarks/WindsorBody/workspace/4fec645fd4758beb81b9aabf76c3f584/case
Date   : Aug 27 2023
Time   : 12:13:42
Host   : nla-gpu2.ianm.kit.edu
PID    : 3065595
I/O    : uncollated
Case   : /home/greole/data/code/exasim_project/micro_benchmarks/WindsorBody/workspace/4fec645fd4758beb81b9aabf76c3f584/case
nProcs : 16
Hosts  :
(
    (nla-gpu2.ianm.kit.edu 16)
)
Pstream initialized with:
    floatTransfer      : false
    nProcsSimpleSum    : 0
    nonBlockingExchange: 0 (tuning: 0)
    exchange algorithm : -1
    commsType          : nonBlocking
    polling iterations : 0
trapFpe: Floating point exception trapping enabled (FOAM_SIGFPE).
fileModificationChecking : Monitoring run-time modified files using timeStampMaster (fileModificationSkew 5, maxFileModificationPolls 20)
allowSystemOperations : Allowing user-supplied system call operations

// * * * * * * * * * * * * * * * * * * * * * * * * * * * * * * * * * * * * * //
Create time

--> FOAM Warning : 
    From void* Foam::dlLibraryTable::openLibrary(const Foam::fileName&, bool)
    in file db/dynamicLibrary/dlLibraryTable/dlLibraryTable.C at line 188
    Could not load "libpetscFoam.so"
libpetscFoam.so: cannot open shared object file: No such file or directory
Create mesh for time = 0


SIMPLE: convergence criteria
    field p	 tolerance 1e-08
    field U	 tolerance 1e-08
    field k	 tolerance 1e-08
    field omega	 tolerance 1e-08
    field nuTilda	 tolerance 1e-08

Reading field p

Reading field U

Reading/calculating face flux field phi

Selecting incompressible transport model Newtonian
Selecting turbulence model type RAS
Selecting RAS turbulence model SpalartAllmaras
Selecting patchDistMethod meshWave
ft2 term: inactive
RAS
{
    RASModel        SpalartAllmaras;
    turbulence      on;
    printCoeffs     on;
    sigmaNut        0.66666;
    kappa           0.41;
    Cb1             0.1355;
    Cb2             0.622;
    Cw2             0.3;
    Cw3             2;
    Cv1             7.1;
    Cs              0.3;
    ck              0.07000000000000001;
    ft2             false;
    Ct3             1.2;
    Ct4             0.5;
}

No MRF models present

Creating finite volume options from "system/fvOptions"

Selecting finite volume options type velocityDampingConstraint
    Source: velocityDamping
    - selecting all cells
    - selected 6307136 cell(s) with volume 27.82583051608782

Starting time loop

--> FOAM Warning : 
    From bool Foam::functionObjectList::read()
    in file db/functionObjects/functionObjectList/functionObjectList.C at line 1035
    Reading "system/controlDict" at line 2 to 41
    Entry 'lref' is not a dictionary
--> FOAM Warning : 
    From bool Foam::functionObjectList::read()
    in file db/functionObjects/functionObjectList/functionObjectList.C at line 1035
    Reading "system/controlDict" at line 2 to 41
    Entry 'Aref' is not a dictionary
--> FOAM Warning : 
    From bool Foam::functionObjectList::read()
    in file db/functionObjects/functionObjectList/functionObjectList.C at line 1035
    Reading "system/controlDict" at line 2 to 41
    Entry 'yawAngle' is not a dictionary
--> FOAM Warning : 
    From bool Foam::functionObjectList::read()
    in file db/functionObjects/functionObjectList/functionObjectList.C at line 1035
    Reading "system/controlDict" at line 2 to 41
    Entry 'lDomain' is not a dictionary
--> FOAM Warning : 
    From bool Foam::functionObjectList::read()
    in file db/functionObjects/functionObjectList/functionObjectList.C at line 1035
    Reading "system/controlDict" at line 2 to 41
    Entry 'bDomain' is not a dictionary
--> FOAM Warning : 
    From bool Foam::functionObjectList::read()
    in file db/functionObjects/functionObjectList/functionObjectList.C at line 1035
    Reading "system/controlDict" at line 2 to 41
    Entry 'hDomain' is not a dictionary
--> FOAM Warning : 
    From bool Foam::functionObjectList::read()
    in file db/functionObjects/functionObjectList/functionObjectList.C at line 1035
    Reading "system/controlDict" at line 2 to 41
    Entry 'xCenter' is not a dictionary
--> FOAM Warning : 
    From bool Foam::functionObjectList::read()
    in file db/functionObjects/functionObjectList/functionObjectList.C at line 1035
    Reading "system/controlDict" at line 2 to 41
    Entry 'yCenter' is not a dictionary
--> FOAM Warning : 
    From bool Foam::functionObjectList::read()
    in file db/functionObjects/functionObjectList/functionObjectList.C at line 1035
    Reading "system/controlDict" at line 2 to 41
    Entry 'zCenter' is not a dictionary
--> FOAM Warning : 
    From bool Foam::functionObjectList::read()
    in file db/functionObjects/functionObjectList/functionObjectList.C at line 1035
    Reading "system/controlDict" at line 2 to 41
    Entry 'inletPatch' is not a dictionary
--> FOAM Warning : 
    From bool Foam::functionObjectList::read()
    in file db/functionObjects/functionObjectList/functionObjectList.C at line 1035
    Reading "system/controlDict" at line 2 to 41
    Entry 'outletPatch' is not a dictionary
--> FOAM Warning : 
    From bool Foam::functionObjectList::read()
    in file db/functionObjects/functionObjectList/functionObjectList.C at line 1035
    Reading "system/controlDict" at line 2 to 41
    Entry 'wallPatches' is not a dictionary
--> FOAM Warning : 
    From bool Foam::functionObjectList::read()
    in file db/functionObjects/functionObjectList/functionObjectList.C at line 1035
    Reading "system/controlDict" at line 2 to 41
    Entry 'forcesWallPatches' is not a dictionary
--> FOAM Warning : 
    From bool Foam::functionObjectList::read()
    in file db/functionObjects/functionObjectList/functionObjectList.C at line 1035
    Reading "system/controlDict" at line 2 to 41
    Entry 'symmPatches' is not a dictionary
--> FOAM Warning : 
    From bool Foam::functionObjectList::read()
    in file db/functionObjects/functionObjectList/functionObjectList.C at line 1035
    Reading "system/controlDict" at line 2 to 41
    Entry 'Uinf' is not a dictionary
--> FOAM Warning : 
    From bool Foam::functionObjectList::read()
    in file db/functionObjects/functionObjectList/functionObjectList.C at line 1035
    Reading "system/controlDict" at line 2 to 41
    Entry 'UinfMag' is not a dictionary
--> FOAM Warning : 
    From bool Foam::functionObjectList::read()
    in file db/functionObjects/functionObjectList/functionObjectList.C at line 1035
    Reading "system/controlDict" at line 2 to 41
    Entry 'nu' is not a dictionary
--> FOAM Warning : 
    From bool Foam::functionObjectList::read()
    in file db/functionObjects/functionObjectList/functionObjectList.C at line 1035
    Reading "system/controlDict" at line 2 to 41
    Entry 'pref' is not a dictionary
--> FOAM Warning : 
    From bool Foam::functionObjectList::read()
    in file db/functionObjects/functionObjectList/functionObjectList.C at line 1035
    Reading "system/controlDict" at line 2 to 41
    Entry 'viscRatio' is not a dictionary
--> FOAM Warning : 
    From bool Foam::functionObjectList::read()
    in file db/functionObjects/functionObjectList/functionObjectList.C at line 1035
    Reading "system/controlDict" at line 2 to 41
    Entry 'Tu' is not a dictionary
--> FOAM Warning : 
    From bool Foam::functionObjectList::read()
    in file db/functionObjects/functionObjectList/functionObjectList.C at line 1035
    Reading "system/controlDict" at line 2 to 41
    Entry 'LESturbModel' is not a dictionary
--> FOAM Warning : 
    From bool Foam::functionObjectList::read()
    in file db/functionObjects/functionObjectList/functionObjectList.C at line 1035
    Reading "system/controlDict" at line 2 to 41
    Entry 'RASturbModel' is not a dictionary
--> FOAM Warning : 
    From bool Foam::functionObjectList::read()
    in file db/functionObjects/functionObjectList/functionObjectList.C at line 1035
    Reading "system/controlDict" at line 2 to 41
    Entry 'deltaTurb' is not a dictionary
--> FOAM Warning : 
    From bool Foam::functionObjectList::read()
    in file db/functionObjects/functionObjectList/functionObjectList.C at line 1035
    Reading "system/controlDict" at line 2 to 41
    Entry 'dt' is not a dictionary
--> FOAM Warning : 
    From bool Foam::functionObjectList::read()
    in file db/functionObjects/functionObjectList/functionObjectList.C at line 1035
    Reading "system/controlDict" at line 2 to 41
    Entry 'tAvg' is not a dictionary
--> FOAM Warning : 
    From bool Foam::functionObjectList::read()
    in file db/functionObjects/functionObjectList/functionObjectList.C at line 1035
    Reading "system/controlDict" at line 2 to 41
    Entry 'tEnd' is not a dictionary
--> FOAM Warning : 
    From bool Foam::functionObjectList::read()
    in file db/functionObjects/functionObjectList/functionObjectList.C at line 1035
    Reading "system/controlDict" at line 2 to 41
    Entry 'writeInterval_' is not a dictionary
--> FOAM Warning : 
    From bool Foam::functionObjectList::read()
    in file db/functionObjects/functionObjectList/functionObjectList.C at line 1035
    Reading "system/controlDict" at line 2 to 41
    Entry 'nCores' is not a dictionary
--> FOAM Warning : 
    From bool Foam::functionObjectList::read()
    in file db/functionObjects/functionObjectList/functionObjectList.C at line 1035
    Reading "system/controlDict" at line 2 to 41
    Entry 'interpScheme' is not a dictionary
--> FOAM Warning : 
    From bool Foam::functionObjectList::read()
    in file db/functionObjects/functionObjectList/functionObjectList.C at line 1035
    Reading "system/controlDict" at line 2 to 41
    Entry 'probeField' is not a dictionary
wallShearStress wallShearStress:
    processing wall patches: 
        Windsor_Body
        CFDWT_Floor
        Windsor_Pins
        Windsor_Base

pressure calc_cp:
    Operating mode: staticCoeff
    Not including hydrostatic effects

forceCoeffs forceCoeffsAll:
    rho: rhoInf
    Freestream density (rhoInf) set to 1
    Not including porosity effects
    magUInf: 40
    lRef   : 0.6375
    Aref   : 0.1124
    rhoInf : 1
    Selecting all coefficients
    - Drag force: Cd
    - Drag force front: Cd(f)
    - Drag force rear: Cd(r)
    - Lift force: Cl
    - Lift force front: Cl(f)
    - Lift force rear: Cl(r)
    - Pitch moment: CmPitch
    - Roll moment: CmRoll
    - Yaw moment: CmYaw
    - Side force: Cs
    - Side force front: Cs(f)
    - Side force rear: Cs(r)


forceCoeffs dragCoeffBase:
    rho: rhoInf
    Freestream density (rhoInf) set to 1
    Not including porosity effects
    magUInf: 40
    lRef   : 0.6375
    Aref   : 0.1124
    rhoInf : 1
    Selecting coefficients:
    - Drag force: Cd


Time = 1

velocityDampingConstraint velocityDamping damped 0 (0%) of cells, with max limit 300
[INFO] MatrixAssemblyU: 573.668 [ms]
smoothSolver:  Solving for Ux, Initial residual = 0.999999999999033, Final residual = 0.08731259393246379, No Iterations 15
smoothSolver:  Solving for Uy, Initial residual = 1, Final residual = 0.08968465882410542, No Iterations 31
smoothSolver:  Solving for Uz, Initial residual = 1, Final residual = 0.03285879368159803, No Iterations 2
[INFO] MomentumPredictor: 511.101 [ms]
[INFO] MatrixAssemblyPI: 84.349 [ms]
[INFO] MatrixAssemblyPII: 40.706 [ms]
[OGL LOG][lduLduBase.H:119] Initialising OGL
	OGL commit:  4647ee1+
	Branch: PersistentDeviceIdGuard 
	Build type: Release
	Ginkgo version: 1.5.0 ( develop)
	Ginkgo commit: 4292ffdee
	MPI is GPU aware: 1
	Forces host buffer based communication: 0
	CPU ranks per GPU: 1
	Matrix format: Coo
	End OGL_INFO
[OGL LOG][Proc: 0]: global_index_init: 11.282 [ms]
[OGL LOG][Proc: 0]p_local_cols: call_init: 0.041 [ms]
[OGL LOG][Proc: 0]p_local_rows: call_init: 0.003 [ms]
[OGL LOG][Proc: 0]p_local_ldu_map: call_init: 0.004 [ms]
[OGL LOG][Proc: 0]p_local_coeffs: call_init: 0.013 [ms]
[OGL LOG][Proc: 0]p_non_local_cols: call_init: 0.003 [ms]
[OGL LOG][Proc: 0]p_non_local_rows: call_init: 0.003 [ms]
[OGL LOG][Proc: 0]p_non_local_ldu_map: call_init: 0.004 [ms]
[OGL LOG][Proc: 0]p_non_local_coeffs: call_init: 0.003 [ms]
[OGL LOG][Proc: 0]p: init_local_sparsity_pattern: 83.241 [ms]
[OGL LOG][Proc: 0]p: init_non_local_sparsity_pattern: 0.9560000000000001 [ms]
[OGL LOG][Proc: 0]p: update_local_matrix_data: 11.179 [ms]
[OGL LOG][Proc: 0]p: update_non_local_matrix_data: 0.099 [ms]
[OGL LOG][Proc: 0]device_partition: call_init: 0.776 [ms]
[OGL LOG][Proc: 0]p_matrix: call_init: 70.726 [ms]
[OGL LOG][Proc: 0]p_rhs: call_init: 3.225 [ms]
[OGL LOG][Proc: 0]p_solution: call_init: 1.062 [ms]
[OGL LOG][Preconditioner.H:121] Generate preconditioner BJ MaxBlockSize 1
[OGL LOG][Proc: 0]p: init_precond: 4.706 [ms]
[OGL LOG][StoppingCriterion.H:373] Creating stopping criterion with minIter 0 frequency 1
[OGL LOG][Proc: 0]p: generate_solver: 0.021 [ms]
[OGL LOG][Proc: 0]p: solve: 2560.156 [ms]
[OGL LOG][Proc: 0]p: copy_x_back: 1.307 [ms]
[OGL LOG][lduLduBase.H:336] 
Statistics:
	Time per iteration: 2191 [mu s]
	Time per residual norm calculation: 1249.000000 [mu s]
	Time per iteration and DOF: 0.347384 [ns]
	Retrieve results bandwidth 2.917000 [GByte/s]
[OGL LOG][Proc: 0]p: solve_multi_gpu: 2642.625 [ms]
BJhipGKOCG:  Solving for p, Initial residual = 1.000000000000169, Final residual = 0.009889794090616634, No Iterations 1168
[INFO] SolveP: 2995.233 [ms]
time step continuity errors : sum local = 0.00362861576440297, global = 4.477650997779351e-05, cumulative = 4.477650997779351e-05
[INFO] postSolveP: 24.43 [ms]
smoothSolver:  Solving for nuTilda, Initial residual = 0.9999999997139436, Final residual = 0.06429469197724054, No Iterations 3
[INFO] TimeStep: 4565.465 [ms]
ExecutionTime = 13.04 s  ClockTime = 13 s

--> FOAM Warning : 
    From virtual bool Foam::functionObjects::fieldSelection::checkSelection()
    in file functionObjects/fieldSelections/fieldSelection/fieldSelection.C at line 166
    Field k not found
--> FOAM Warning : 
    From virtual bool Foam::functionObjects::fieldSelection::checkSelection()
    in file functionObjects/fieldSelections/fieldSelection/fieldSelection.C at line 166
    Field gammaInt not found
--> FOAM Warning : 
    From virtual bool Foam::functionObjects::fieldSelection::checkSelection()
    in file functionObjects/fieldSelections/fieldSelection/fieldSelection.C at line 166
    Field omega not found
--> FOAM Warning : 
    From virtual bool Foam::functionObjects::fieldSelection::checkSelection()
    in file functionObjects/fieldSelections/fieldSelection/fieldSelection.C at line 166
    Field ReThetat not found
--> FOAM Warning : 
    From virtual bool Foam::functionObjects::fieldSelection::checkSelection()
    in file functionObjects/fieldSelections/fieldSelection/fieldSelection.C at line 166
    Field epsilon not found
--> FOAM Warning : 
    From virtual bool Foam::functionObjects::solverFieldSelection::updateSelection()
    in file functionObjects/fieldSelections/solverFieldSelection/solverFieldSelection.C at line 85
    Valid solver fields are: 3(U nuTilda p)Time = 2

velocityDampingConstraint velocityDamping damped 0 (0%) of cells, with max limit 300
[INFO] MatrixAssemblyU: 554.015 [ms]
smoothSolver:  Solving for Ux, Initial residual = 0.2130726952846859, Final residual = 0.01843199212944643, No Iterations 13
smoothSolver:  Solving for Uy, Initial residual = 0.3552908139144415, Final residual = 0.03323916331949743, No Iterations 13
smoothSolver:  Solving for Uz, Initial residual = 0.3287264533710177, Final residual = 0.02812913495794738, No Iterations 13
[INFO] MomentumPredictor: 445.048 [ms]
[INFO] MatrixAssemblyPI: 81.33199999999999 [ms]
[INFO] MatrixAssemblyPII: 41.277 [ms]
[OGL LOG][Proc: 0]: global_index_init: 0.041 [ms]
[OGL LOG][Proc: 0]p_local_coeffs: call_update: 0.006 [ms]
[OGL LOG][Proc: 0]p_non_local_coeffs: call_update: 0 [ms]
[OGL LOG][Proc: 0]p: update_local_matrix_data: 11.171 [ms]
[OGL LOG][Proc: 0]p: update_non_local_matrix_data: 0.075 [ms]
[OGL LOG][Proc: 0]p_matrix: call_update: 4.799 [ms]
[OGL LOG][Proc: 0]p_rhs: call_update: 1.594 [ms]
[OGL LOG][Preconditioner.H:121] Generate preconditioner BJ MaxBlockSize 1
[OGL LOG][Proc: 0]p: init_precond: 0.417 [ms]
[OGL LOG][StoppingCriterion.H:373] Creating stopping criterion with minIter 700 frequency 21
[OGL LOG][Proc: 0]p: generate_solver: 0.002 [ms]
[OGL LOG][Proc: 0]p: solve: 818.9110000000001 [ms]
[OGL LOG][Proc: 0]p: copy_x_back: 1.271 [ms]
[OGL LOG][lduLduBase.H:336] 
Statistics:
	Time per iteration: 846 [mu s]
	Time per residual norm calculation: 259.000000 [mu s]
	Time per iteration and DOF: 0.134134 [ns]
	Retrieve results bandwidth 2.999000 [GByte/s]
[OGL LOG][Proc: 0]p: solve_multi_gpu: 827.572 [ms]
BJhipGKOCG:  Solving for p, Initial residual = 0.2096330236637091, Final residual = 0.001566057858217542, No Iterations 967
[INFO] SolveP: 841.503 [ms]
time step continuity errors : sum local = 0.03209960351495625, global = 0.001479078651919681, cumulative = 0.001523855161897475
[INFO] postSolveP: 23.556 [ms]
smoothSolver:  Solving for nuTilda, Initial residual = 0.4060401057795063, Final residual = 0.02531828233931535, No Iterations 1
[INFO] TimeStep: 2310.016 [ms]
ExecutionTime = 15.79 s  ClockTime = 16 s

Time = 3

velocityDampingConstraint velocityDamping damped 829 (0.01%) of cells, with max limit 300
[INFO] MatrixAssemblyU: 571.645 [ms]
smoothSolver:  Solving for Ux, Initial residual = 0.1247729646583977, Final residual = 0.01176275598123074, No Iterations 9
smoothSolver:  Solving for Uy, Initial residual = 0.2053897374815591, Final residual = 0.01973113767354395, No Iterations 10
smoothSolver:  Solving for Uz, Initial residual = 0.2183483772393852, Final residual = 0.02137698474962741, No Iterations 9
[INFO] MomentumPredictor: 349.897 [ms]
[INFO] MatrixAssemblyPI: 85.661 [ms]
[INFO] MatrixAssemblyPII: 40.862 [ms]
[OGL LOG][Proc: 0]: global_index_init: 0.214 [ms]
[OGL LOG][Proc: 0]p_local_coeffs: call_update: 0 [ms]
[OGL LOG][Proc: 0]p_non_local_coeffs: call_update: 0 [ms]
[OGL LOG][Proc: 0]p: update_local_matrix_data: 11.176 [ms]
[OGL LOG][Proc: 0]p: update_non_local_matrix_data: 0.102 [ms]
[OGL LOG][Proc: 0]p_matrix: call_update: 3.872 [ms]
[OGL LOG][Proc: 0]p_rhs: call_update: 1.84 [ms]
[OGL LOG][Preconditioner.H:121] Generate preconditioner BJ MaxBlockSize 1
[OGL LOG][Proc: 0]p: init_precond: 0.396 [ms]
[OGL LOG][StoppingCriterion.H:373] Creating stopping criterion with minIter 580 frequency 11
[OGL LOG][Proc: 0]p: generate_solver: 0.002 [ms]
[OGL LOG][Proc: 0]p: solve: 494.248 [ms]
[OGL LOG][Proc: 0]p: copy_x_back: 1.28 [ms]
[OGL LOG][lduLduBase.H:336] 
Statistics:
	Time per iteration: 846 [mu s]
	Time per residual norm calculation: 278.000000 [mu s]
	Time per iteration and DOF: 0.134134 [ns]
	Retrieve results bandwidth 2.978000 [GByte/s]
[OGL LOG][Proc: 0]p: solve_multi_gpu: 502.217 [ms]
BJhipGKOCG:  Solving for p, Initial residual = 0.1169628928722501, Final residual = 0.001040274012042595, No Iterations 584
[INFO] SolveP: 516.237 [ms]
time step continuity errors : sum local = 0.01173974783100085, global = 5.945415258453189e-05, cumulative = 0.001583309314482007
[INFO] postSolveP: 21.771 [ms]
smoothSolver:  Solving for nuTilda, Initial residual = 0.2092973732819379, Final residual = 0.01312772975309304, No Iterations 2
[INFO] TimeStep: 1907.888 [ms]
ExecutionTime = 18.15 s  ClockTime = 18 s

Time = 4

velocityDampingConstraint velocityDamping damped 0 (0%) of cells, with max limit 300
[INFO] MatrixAssemblyU: 560.0599999999999 [ms]
smoothSolver:  Solving for Ux, Initial residual = 0.05438461413483978, Final residual = 0.00495874705963736, No Iterations 11
smoothSolver:  Solving for Uy, Initial residual = 0.1225784607312328, Final residual = 0.0110232808307277, No Iterations 11
smoothSolver:  Solving for Uz, Initial residual = 0.1333769697563945, Final residual = 0.01300994094562136, No Iterations 10
[INFO] MomentumPredictor: 376.253 [ms]
[INFO] MatrixAssemblyPI: 81.03 [ms]
[INFO] MatrixAssemblyPII: 40.97 [ms]
[OGL LOG][Proc: 0]: global_index_init: 0.032 [ms]
[OGL LOG][Proc: 0]p_local_coeffs: call_update: 0 [ms]
[OGL LOG][Proc: 0]p_non_local_coeffs: call_update: 0 [ms]
[OGL LOG][Proc: 0]p: update_local_matrix_data: 11.005 [ms]
[OGL LOG][Proc: 0]p: update_non_local_matrix_data: 0.078 [ms]
[OGL LOG][Proc: 0]p_matrix: call_update: 3.328 [ms]
[OGL LOG][Proc: 0]p_rhs: call_update: 2.506 [ms]
[OGL LOG][Preconditioner.H:121] Generate preconditioner BJ MaxBlockSize 1
[OGL LOG][Proc: 0]p: init_precond: 0.375 [ms]
[OGL LOG][StoppingCriterion.H:373] Creating stopping criterion with minIter 350 frequency 8
[OGL LOG][Proc: 0]p: generate_solver: 0.002 [ms]
[OGL LOG][Proc: 0]p: solve: 311.883 [ms]
[OGL LOG][Proc: 0]p: copy_x_back: 1.278 [ms]
[OGL LOG][lduLduBase.H:336] 
Statistics:
	Time per iteration: 883 [mu s]
	Time per residual norm calculation: 270.000000 [mu s]
	Time per iteration and DOF: 0.140000 [ns]
	Retrieve results bandwidth 2.983000 [GByte/s]
[OGL LOG][Proc: 0]p: solve_multi_gpu: 319.916 [ms]
BJhipGKOCG:  Solving for p, Initial residual = 0.1411037990057721, Final residual = 0.001402629927617491, No Iterations 353
[INFO] SolveP: 333.291 [ms]
time step continuity errors : sum local = 0.01338969761904744, global = -0.0003678567462256682, cumulative = 0.001215452568256339
[INFO] postSolveP: 21.899 [ms]
smoothSolver:  Solving for nuTilda, Initial residual = 0.1247718738704559, Final residual = 0.01051578162127128, No Iterations 2
[INFO] TimeStep: 1740.082 [ms]
ExecutionTime = 20.33 s  ClockTime = 21 s

Time = 5

velocityDampingConstraint velocityDamping damped 118 (0%) of cells, with max limit 300
[INFO] MatrixAssemblyU: 555.706 [ms]
smoothSolver:  Solving for Ux, Initial residual = 0.04420897664983953, Final residual = 0.004196378448493402, No Iterations 10
smoothSolver:  Solving for Uy, Initial residual = 0.09826004817579728, Final residual = 0.009282191539461261, No Iterations 11
smoothSolver:  Solving for Uz, Initial residual = 0.1140131409277104, Final residual = 0.01128810440333024, No Iterations 10
[INFO] MomentumPredictor: 370.064 [ms]
[INFO] MatrixAssemblyPI: 84.235 [ms]
[INFO] MatrixAssemblyPII: 43.112 [ms]
[OGL LOG][Proc: 0]: global_index_init: 0.456 [ms]
[OGL LOG][Proc: 0]p_local_coeffs: call_update: 0 [ms]
[OGL LOG][Proc: 0]p_non_local_coeffs: call_update: 0 [ms]
[OGL LOG][Proc: 0]p: update_local_matrix_data: 10.776 [ms]
[OGL LOG][Proc: 0]p: update_non_local_matrix_data: 0.07100000000000001 [ms]
[OGL LOG][Proc: 0]p_matrix: call_update: 4.101 [ms]
[OGL LOG][Proc: 0]p_rhs: call_update: 1.35 [ms]
[OGL LOG][Preconditioner.H:121] Generate preconditioner BJ MaxBlockSize 1
[OGL LOG][Proc: 0]p: init_precond: 0.395 [ms]
[OGL LOG][StoppingCriterion.H:373] Creating stopping criterion with minIter 211 frequency 6
[OGL LOG][Proc: 0]p: generate_solver: 0.002 [ms]
[OGL LOG][Proc: 0]p: solve: 304.518 [ms]
[OGL LOG][Proc: 0]p: copy_x_back: 1.296 [ms]
[OGL LOG][lduLduBase.H:336] 
Statistics:
	Time per iteration: 903 [mu s]
	Time per residual norm calculation: 259.000000 [mu s]
	Time per iteration and DOF: 0.143171 [ns]
	Retrieve results bandwidth 2.942000 [GByte/s]
[OGL LOG][Proc: 0]p: solve_multi_gpu: 312.201 [ms]
BJhipGKOCG:  Solving for p, Initial residual = 0.1028177768356402, Final residual = 0.001018062219167353, No Iterations 337
[INFO] SolveP: 325.78 [ms]
time step continuity errors : sum local = 0.007597999123624096, global = 0.0003231887392921443, cumulative = 0.001538641307548483
[INFO] postSolveP: 22.19 [ms]
smoothSolver:  Solving for nuTilda, Initial residual = 0.07092254739036231, Final residual = 0.004311066389324616, No Iterations 3
[INFO] TimeStep: 1724.216 [ms]
ExecutionTime = 22.5 s  ClockTime = 23 s

Time = 6

velocityDampingConstraint velocityDamping damped 0 (0%) of cells, with max limit 300
[INFO] MatrixAssemblyU: 547.877 [ms]
smoothSolver:  Solving for Ux, Initial residual = 0.02990129445760889, Final residual = 0.002664108402552156, No Iterations 12
smoothSolver:  Solving for Uy, Initial residual = 0.07483991614998221, Final residual = 0.006932356094679674, No Iterations 12
smoothSolver:  Solving for Uz, Initial residual = 0.08081611688873516, Final residual = 0.006928985995616367, No Iterations 12
[INFO] MomentumPredictor: 415.063 [ms]
[INFO] MatrixAssemblyPI: 82.571 [ms]
[INFO] MatrixAssemblyPII: 41.711 [ms]
[OGL LOG][Proc: 0]: global_index_init: 0.046 [ms]
[OGL LOG][Proc: 0]p_local_coeffs: call_update: 0 [ms]
[OGL LOG][Proc: 0]p_non_local_coeffs: call_update: 0 [ms]
[OGL LOG][Proc: 0]p: update_local_matrix_data: 11.465 [ms]
[OGL LOG][Proc: 0]p: update_non_local_matrix_data: 0.089 [ms]
[OGL LOG][Proc: 0]p_matrix: call_update: 6.061 [ms]
[OGL LOG][Proc: 0]p_rhs: call_update: 1.303 [ms]
[OGL LOG][Preconditioner.H:121] Generate preconditioner BJ MaxBlockSize 1
[OGL LOG][Proc: 0]p: init_precond: 0.374 [ms]
[OGL LOG][StoppingCriterion.H:373] Creating stopping criterion with minIter 202 frequency 6
[OGL LOG][Proc: 0]p: generate_solver: 0.002 [ms]
[OGL LOG][Proc: 0]p: solve: 300.638 [ms]
[OGL LOG][Proc: 0]p: copy_x_back: 1.28 [ms]
[OGL LOG][lduLduBase.H:336] 
Statistics:
	Time per iteration: 925 [mu s]
	Time per residual norm calculation: 257.000000 [mu s]
	Time per iteration and DOF: 0.146659 [ns]
	Retrieve results bandwidth 2.978000 [GByte/s]
[OGL LOG][Proc: 0]p: solve_multi_gpu: 310.229 [ms]
BJhipGKOCG:  Solving for p, Initial residual = 0.09134989799411797, Final residual = 0.0008907188017238957, No Iterations 325
[INFO] SolveP: 324.176 [ms]
time step continuity errors : sum local = 0.00691725996033014, global = 9.136589750205342e-05, cumulative = 0.001630007205050536
[INFO] postSolveP: 22.771 [ms]
smoothSolver:  Solving for nuTilda, Initial residual = 0.06432444840426964, Final residual = 0.00300435398566105, No Iterations 3
[INFO] TimeStep: 1758.576 [ms]
ExecutionTime = 24.69 s  ClockTime = 25 s

Time = 7

velocityDampingConstraint velocityDamping damped 15 (0%) of cells, with max limit 300
[INFO] MatrixAssemblyU: 543.266 [ms]
smoothSolver:  Solving for Ux, Initial residual = 0.02708694247098937, Final residual = 0.002409745803994902, No Iterations 12
smoothSolver:  Solving for Uy, Initial residual = 0.06787761546117171, Final residual = 0.006418042025392541, No Iterations 12
smoothSolver:  Solving for Uz, Initial residual = 0.07106301046567806, Final residual = 0.006215706606782863, No Iterations 12
[INFO] MomentumPredictor: 413.74 [ms]
[INFO] MatrixAssemblyPI: 84.392 [ms]
[INFO] MatrixAssemblyPII: 40.524 [ms]
[OGL LOG][Proc: 0]: global_index_init: 0.116 [ms]
[OGL LOG][Proc: 0]p_local_coeffs: call_update: 0 [ms]
[OGL LOG][Proc: 0]p_non_local_coeffs: call_update: 0 [ms]
[OGL LOG][Proc: 0]p: update_local_matrix_data: 11.307 [ms]
[OGL LOG][Proc: 0]p: update_non_local_matrix_data: 0.06900000000000001 [ms]
[OGL LOG][Proc: 0]p_matrix: call_update: 3.124 [ms]
[OGL LOG][Proc: 0]p_rhs: call_update: 2.26 [ms]
[OGL LOG][Preconditioner.H:121] Generate preconditioner BJ MaxBlockSize 1
[OGL LOG][Proc: 0]p: init_precond: 0.357 [ms]
[OGL LOG][StoppingCriterion.H:373] Creating stopping criterion with minIter 195 frequency 6
[OGL LOG][Proc: 0]p: generate_solver: 0.002 [ms]
[OGL LOG][Proc: 0]p: solve: 318.118 [ms]
[OGL LOG][Proc: 0]p: copy_x_back: 1.272 [ms]
[OGL LOG][lduLduBase.H:336] 
Statistics:
	Time per iteration: 896 [mu s]
	Time per residual norm calculation: 257.000000 [mu s]
	Time per iteration and DOF: 0.142061 [ns]
	Retrieve results bandwidth 2.997000 [GByte/s]
[OGL LOG][Proc: 0]p: solve_multi_gpu: 325.684 [ms]
BJhipGKOCG:  Solving for p, Initial residual = 0.07955964255455414, Final residual = 0.0007787979172705818, No Iterations 355
[INFO] SolveP: 339.18 [ms]
time step continuity errors : sum local = 0.005925470008952805, global = -0.0005015522432628095, cumulative = 0.001128454961787727
[INFO] postSolveP: 24.545 [ms]
smoothSolver:  Solving for nuTilda, Initial residual = 0.04911798764055122, Final residual = 0.003228635172577163, No Iterations 3
[INFO] TimeStep: 1768.105 [ms]
ExecutionTime = 26.9 s  ClockTime = 27 s

Time = 8

velocityDampingConstraint velocityDamping damped 0 (0%) of cells, with max limit 300
[INFO] MatrixAssemblyU: 540.374 [ms]
smoothSolver:  Solving for Ux, Initial residual = 0.02307869257238729, Final residual = 0.002138457598163303, No Iterations 12
smoothSolver:  Solving for Uy, Initial residual = 0.06033832296338029, Final residual = 0.005923865971438055, No Iterations 12
smoothSolver:  Solving for Uz, Initial residual = 0.06206127419089518, Final residual = 0.005623742177789119, No Iterations 12
[INFO] MomentumPredictor: 415.089 [ms]
[INFO] MatrixAssemblyPI: 87.084 [ms]
[INFO] MatrixAssemblyPII: 41.519 [ms]
[OGL LOG][Proc: 0]: global_index_init: 0.039 [ms]
[OGL LOG][Proc: 0]p_local_coeffs: call_update: 0 [ms]
[OGL LOG][Proc: 0]p_non_local_coeffs: call_update: 0 [ms]
[OGL LOG][Proc: 0]p: update_local_matrix_data: 10.718 [ms]
[OGL LOG][Proc: 0]p: update_non_local_matrix_data: 0.094 [ms]
[OGL LOG][Proc: 0]p_matrix: call_update: 3.724 [ms]
[OGL LOG][Proc: 0]p_rhs: call_update: 2.452 [ms]
[OGL LOG][Preconditioner.H:121] Generate preconditioner BJ MaxBlockSize 1
[OGL LOG][Proc: 0]p: init_precond: 0.434 [ms]
[OGL LOG][StoppingCriterion.H:373] Creating stopping criterion with minIter 213 frequency 6
[OGL LOG][Proc: 0]p: generate_solver: 0.002 [ms]
[OGL LOG][Proc: 0]p: solve: 661.7910000000001 [ms]
[OGL LOG][Proc: 0]p: copy_x_back: 1.254 [ms]
[OGL LOG][lduLduBase.H:336] 
Statistics:
	Time per iteration: 874 [mu s]
	Time per residual norm calculation: 257.000000 [mu s]
	Time per iteration and DOF: 0.138573 [ns]
	Retrieve results bandwidth 3.040000 [GByte/s]
[OGL LOG][Proc: 0]p: solve_multi_gpu: 670.203 [ms]
BJhipGKOCG:  Solving for p, Initial residual = 0.07194215418132106, Final residual = 0.0006769151787644969, No Iterations 757
[INFO] SolveP: 683.5599999999999 [ms]
time step continuity errors : sum local = 0.005248371947799893, global = -0.0003407132593963272, cumulative = 0.0007877417023913996
[INFO] postSolveP: 21.852 [ms]
smoothSolver:  Solving for nuTilda, Initial residual = 0.06544194891051335, Final residual = 0.005860569320353926, No Iterations 2
[INFO] TimeStep: 2101.736 [ms]
ExecutionTime = 29.43 s  ClockTime = 30 s

Time = 9

velocityDampingConstraint velocityDamping damped 0 (0%) of cells, with max limit 300
[INFO] MatrixAssemblyU: 545.644 [ms]
smoothSolver:  Solving for Ux, Initial residual = 0.02049603364914548, Final residual = 0.001908769165836393, No Iterations 12
smoothSolver:  Solving for Uy, Initial residual = 0.05461810352762141, Final residual = 0.005421498019915185, No Iterations 12
smoothSolver:  Solving for Uz, Initial residual = 0.05535191058655561, Final residual = 0.005124460302671548, No Iterations 12
[INFO] MomentumPredictor: 415.612 [ms]
[INFO] MatrixAssemblyPI: 83.321 [ms]
[INFO] MatrixAssemblyPII: 40.722 [ms]
[OGL LOG][Proc: 0]: global_index_init: 0.286 [ms]
[OGL LOG][Proc: 0]p_local_coeffs: call_update: 0 [ms]
[OGL LOG][Proc: 0]p_non_local_coeffs: call_update: 0 [ms]
[OGL LOG][Proc: 0]p: update_local_matrix_data: 10.552 [ms]
[OGL LOG][Proc: 0]p: update_non_local_matrix_data: 0.068 [ms]
[OGL LOG][Proc: 0]p_matrix: call_update: 3.633 [ms]
[OGL LOG][Proc: 0]p_rhs: call_update: 2.949 [ms]
[OGL LOG][Preconditioner.H:121] Generate preconditioner BJ MaxBlockSize 1
[OGL LOG][Proc: 0]p: init_precond: 0.383 [ms]
[OGL LOG][StoppingCriterion.H:373] Creating stopping criterion with minIter 454 frequency 10
[OGL LOG][Proc: 0]p: generate_solver: 0.002 [ms]
[OGL LOG][Proc: 0]p: solve: 391.119 [ms]
[OGL LOG][Proc: 0]p: copy_x_back: 1.263 [ms]
[OGL LOG][lduLduBase.H:336] 
Statistics:
	Time per iteration: 848 [mu s]
	Time per residual norm calculation: 269.000000 [mu s]
	Time per iteration and DOF: 0.134451 [ns]
	Retrieve results bandwidth 3.018000 [GByte/s]
[OGL LOG][Proc: 0]p: solve_multi_gpu: 399.859 [ms]
BJhipGKOCG:  Solving for p, Initial residual = 0.06875934928541734, Final residual = 0.0004003551122611492, No Iterations 461
[INFO] SolveP: 412.954 [ms]
time step continuity errors : sum local = 0.003003012410809926, global = 0.0005705340945494583, cumulative = 0.001358275796940858
[INFO] postSolveP: 21.328 [ms]
smoothSolver:  Solving for nuTilda, Initial residual = 0.04415177512395464, Final residual = 0.003201368145268094, No Iterations 3
[INFO] TimeStep: 1841.462 [ms]
ExecutionTime = 31.7 s  ClockTime = 32 s

Time = 10

velocityDampingConstraint velocityDamping damped 0 (0%) of cells, with max limit 300
[INFO] MatrixAssemblyU: 541.925 [ms]
smoothSolver:  Solving for Ux, Initial residual = 0.01844434155347245, Final residual = 0.001729156170903709, No Iterations 12
smoothSolver:  Solving for Uy, Initial residual = 0.05027259985504624, Final residual = 0.005000192750067672, No Iterations 12
smoothSolver:  Solving for Uz, Initial residual = 0.05058326629526264, Final residual = 0.004757423919052782, No Iterations 12
[INFO] MomentumPredictor: 409.037 [ms]
[INFO] MatrixAssemblyPI: 82.57599999999999 [ms]
[INFO] MatrixAssemblyPII: 41.184 [ms]
[OGL LOG][Proc: 0]: global_index_init: 0.092 [ms]
[OGL LOG][Proc: 0]p_local_coeffs: call_update: 0 [ms]
[OGL LOG][Proc: 0]p_non_local_coeffs: call_update: 0 [ms]
[OGL LOG][Proc: 0]p: update_local_matrix_data: 11.337 [ms]
[OGL LOG][Proc: 0]p: update_non_local_matrix_data: 0.099 [ms]
[OGL LOG][Proc: 0]p_matrix: call_update: 3.391 [ms]
[OGL LOG][Proc: 0]p_rhs: call_update: 1.839 [ms]
[OGL LOG][Preconditioner.H:121] Generate preconditioner BJ MaxBlockSize 1
[OGL LOG][Proc: 0]p: init_precond: 0.391 [ms]
[OGL LOG][StoppingCriterion.H:373] Creating stopping criterion with minIter 276 frequency 7
[OGL LOG][Proc: 0]p: generate_solver: 0.002 [ms]
[OGL LOG][Proc: 0]p: solve: 276.176 [ms]
[OGL LOG][Proc: 0]p: copy_x_back: 1.272 [ms]
[OGL LOG][lduLduBase.H:336] 
Statistics:
	Time per iteration: 893 [mu s]
	Time per residual norm calculation: 258.000000 [mu s]
	Time per iteration and DOF: 0.141586 [ns]
	Retrieve results bandwidth 2.997000 [GByte/s]
[OGL LOG][Proc: 0]p: solve_multi_gpu: 283.602 [ms]
BJhipGKOCG:  Solving for p, Initial residual = 0.06278340554796899, Final residual = 0.0006193376156380072, No Iterations 309
[INFO] SolveP: 297.345 [ms]
time step continuity errors : sum local = 0.004608421851587362, global = 0.001041181504555128, cumulative = 0.002399457301495986
[INFO] postSolveP: 21.856 [ms]
smoothSolver:  Solving for nuTilda, Initial residual = 0.06973341617580589, Final residual = 0.005490902439336372, No Iterations 2
[INFO] TimeStep: 1705.752 [ms]
ExecutionTime = 33.83 s  ClockTime = 34 s

Time = 11

velocityDampingConstraint velocityDamping damped 0 (0%) of cells, with max limit 300
[INFO] MatrixAssemblyU: 542.026 [ms]
smoothSolver:  Solving for Ux, Initial residual = 0.01674662663015606, Final residual = 0.001604350494386388, No Iterations 12
smoothSolver:  Solving for Uy, Initial residual = 0.0474089191175142, Final residual = 0.004682841036593232, No Iterations 12
smoothSolver:  Solving for Uz, Initial residual = 0.04711026128570034, Final residual = 0.004470085439953215, No Iterations 12
[INFO] MomentumPredictor: 409.26 [ms]
[INFO] MatrixAssemblyPI: 83.438 [ms]
[INFO] MatrixAssemblyPII: 40.525 [ms]
[OGL LOG][Proc: 0]: global_index_init: 0.393 [ms]
[OGL LOG][Proc: 0]p_local_coeffs: call_update: 0 [ms]
[OGL LOG][Proc: 0]p_non_local_coeffs: call_update: 0 [ms]
[OGL LOG][Proc: 0]p: update_local_matrix_data: 11.294 [ms]
[OGL LOG][Proc: 0]p: update_non_local_matrix_data: 0.07000000000000001 [ms]
[OGL LOG][Proc: 0]p_matrix: call_update: 3.531 [ms]
[OGL LOG][Proc: 0]p_rhs: call_update: 2.005 [ms]
[OGL LOG][Preconditioner.H:121] Generate preconditioner BJ MaxBlockSize 1
[OGL LOG][Proc: 0]p: init_precond: 0.44 [ms]
[OGL LOG][StoppingCriterion.H:373] Creating stopping criterion with minIter 185 frequency 6
[OGL LOG][Proc: 0]p: generate_solver: 0.002 [ms]
[OGL LOG][Proc: 0]p: solve: 671.184 [ms]
[OGL LOG][Proc: 0]p: copy_x_back: 1.263 [ms]
[OGL LOG][lduLduBase.H:336] 
Statistics:
	Time per iteration: 900 [mu s]
	Time per residual norm calculation: 4552.000000 [mu s]
	Time per iteration and DOF: 0.142696 [ns]
	Retrieve results bandwidth 3.018000 [GByte/s]
[OGL LOG][Proc: 0]p: solve_multi_gpu: 678.98 [ms]
BJhipGKOCG:  Solving for p, Initial residual = 0.05828689690702741, Final residual = 0.0005581922530776355, No Iterations 745
[INFO] SolveP: 693.101 [ms]
time step continuity errors : sum local = 0.004169751172242063, global = -0.0001661504285942941, cumulative = 0.002233306872901692
[INFO] postSolveP: 22.379 [ms]
smoothSolver:  Solving for nuTilda, Initial residual = 0.03913500778992108, Final residual = 0.003024422193954504, No Iterations 3
[INFO] TimeStep: 2111.791 [ms]
ExecutionTime = 36.37 s  ClockTime = 37 s

Time = 12

velocityDampingConstraint velocityDamping damped 0 (0%) of cells, with max limit 300
[INFO] MatrixAssemblyU: 537.829 [ms]
smoothSolver:  Solving for Ux, Initial residual = 0.01559977368934649, Final residual = 0.001514213146524963, No Iterations 12
smoothSolver:  Solving for Uy, Initial residual = 0.04573954222905326, Final residual = 0.004465525387771374, No Iterations 12
smoothSolver:  Solving for Uz, Initial residual = 0.04514609741482932, Final residual = 0.004278963865408037, No Iterations 12
[INFO] MomentumPredictor: 413.086 [ms]
[INFO] MatrixAssemblyPI: 85.72499999999999 [ms]
[INFO] MatrixAssemblyPII: 40.718 [ms]
[OGL LOG][Proc: 0]: global_index_init: 0.165 [ms]
[OGL LOG][Proc: 0]p_local_coeffs: call_update: 0 [ms]
[OGL LOG][Proc: 0]p_non_local_coeffs: call_update: 0 [ms]
[OGL LOG][Proc: 0]p: update_local_matrix_data: 11.121 [ms]
[OGL LOG][Proc: 0]p: update_non_local_matrix_data: 0.068 [ms]
[OGL LOG][Proc: 0]p_matrix: call_update: 6.264 [ms]
[OGL LOG][Proc: 0]p_rhs: call_update: 0.892 [ms]
[OGL LOG][Preconditioner.H:121] Generate preconditioner BJ MaxBlockSize 1
[OGL LOG][Proc: 0]p: init_precond: 0.349 [ms]
[OGL LOG][StoppingCriterion.H:373] Creating stopping criterion with minIter 0 frequency 1
[OGL LOG][Proc: 0]p: generate_solver: 0.002 [ms]
[OGL LOG][Proc: 0]p: solve: 344.084 [ms]
[OGL LOG][Proc: 0]p: copy_x_back: 1.261 [ms]
[OGL LOG][lduLduBase.H:336] 
Statistics:
	Time per iteration: 1174 [mu s]
	Time per residual norm calculation: 254.000000 [mu s]
	Time per iteration and DOF: 0.186138 [ns]
	Retrieve results bandwidth 3.023000 [GByte/s]
[OGL LOG][Proc: 0]p: solve_multi_gpu: 353.392 [ms]
BJhipGKOCG:  Solving for p, Initial residual = 0.05094899609321072, Final residual = 0.0005061605855940799, No Iterations 293
[INFO] SolveP: 366.751 [ms]
time step continuity errors : sum local = 0.004057757836357942, global = -0.000685062300594902, cumulative = 0.00154824457230679
[INFO] postSolveP: 21.909 [ms]
smoothSolver:  Solving for nuTilda, Initial residual = 0.06548005562618237, Final residual = 0.005098871185597036, No Iterations 2
[INFO] TimeStep: 1775.982 [ms]
ExecutionTime = 38.58 s  ClockTime = 39 s

Time = 13

velocityDampingConstraint velocityDamping damped 0 (0%) of cells, with max limit 300
[INFO] MatrixAssemblyU: 537.1 [ms]
smoothSolver:  Solving for Ux, Initial residual = 0.01447874726790356, Final residual = 0.001438456204271834, No Iterations 12
smoothSolver:  Solving for Uy, Initial residual = 0.04354153368986997, Final residual = 0.004263332978867794, No Iterations 12
smoothSolver:  Solving for Uz, Initial residual = 0.04296932178424682, Final residual = 0.004127764845503598, No Iterations 12
[INFO] MomentumPredictor: 411.478 [ms]
[INFO] MatrixAssemblyPI: 86.599 [ms]
[INFO] MatrixAssemblyPII: 40.535 [ms]
[OGL LOG][Proc: 0]: global_index_init: 0.11 [ms]
[OGL LOG][Proc: 0]p_local_coeffs: call_update: 0 [ms]
[OGL LOG][Proc: 0]p_non_local_coeffs: call_update: 0 [ms]
[OGL LOG][Proc: 0]p: update_local_matrix_data: 10.879 [ms]
[OGL LOG][Proc: 0]p: update_non_local_matrix_data: 0.07000000000000001 [ms]
[OGL LOG][Proc: 0]p_matrix: call_update: 3.176 [ms]
[OGL LOG][Proc: 0]p_rhs: call_update: 4.235 [ms]
[OGL LOG][Preconditioner.H:121] Generate preconditioner BJ MaxBlockSize 1
[OGL LOG][Proc: 0]p: init_precond: 0.424 [ms]
[OGL LOG][StoppingCriterion.H:373] Creating stopping criterion with minIter 175 frequency 5
[OGL LOG][Proc: 0]p: generate_solver: 0.002 [ms]
[OGL LOG][Proc: 0]p: solve: 586.15 [ms]
[OGL LOG][Proc: 0]p: copy_x_back: 1.272 [ms]
[OGL LOG][lduLduBase.H:336] 
Statistics:
	Time per iteration: 886 [mu s]
	Time per residual norm calculation: 255.000000 [mu s]
	Time per iteration and DOF: 0.140476 [ns]
	Retrieve results bandwidth 2.997000 [GByte/s]
[OGL LOG][Proc: 0]p: solve_multi_gpu: 595.803 [ms]
BJhipGKOCG:  Solving for p, Initial residual = 0.04822442762696239, Final residual = 0.0004752509760535348, No Iterations 661
[INFO] SolveP: 608.9640000000001 [ms]
time step continuity errors : sum local = 0.003791196972224266, global = -9.391128783484074e-05, cumulative = 0.001454333284471949
[INFO] postSolveP: 22.031 [ms]
smoothSolver:  Solving for nuTilda, Initial residual = 0.03472162680895277, Final residual = 0.002827441144928894, No Iterations 3
[INFO] TimeStep: 2028.109 [ms]
ExecutionTime = 41.03 s  ClockTime = 41 s

Time = 14

velocityDampingConstraint velocityDamping damped 0 (0%) of cells, with max limit 300
[INFO] MatrixAssemblyU: 537.593 [ms]
smoothSolver:  Solving for Ux, Initial residual = 0.0137255500816186, Final residual = 0.001172609747520803, No Iterations 13
smoothSolver:  Solving for Uy, Initial residual = 0.04195654831196125, Final residual = 0.004096940821956266, No Iterations 12
smoothSolver:  Solving for Uz, Initial residual = 0.04218162990472311, Final residual = 0.004053035896159264, No Iterations 12
[INFO] MomentumPredictor: 427.908 [ms]
[INFO] MatrixAssemblyPI: 83.095 [ms]
[INFO] MatrixAssemblyPII: 40.721 [ms]
[OGL LOG][Proc: 0]: global_index_init: 0.346 [ms]
[OGL LOG][Proc: 0]p_local_coeffs: call_update: 0 [ms]
[OGL LOG][Proc: 0]p_non_local_coeffs: call_update: 0 [ms]
[OGL LOG][Proc: 0]p: update_local_matrix_data: 11.242 [ms]
[OGL LOG][Proc: 0]p: update_non_local_matrix_data: 0.08799999999999999 [ms]
[OGL LOG][Proc: 0]p_matrix: call_update: 4.015 [ms]
[OGL LOG][Proc: 0]p_rhs: call_update: 1.275 [ms]
[OGL LOG][Preconditioner.H:121] Generate preconditioner BJ MaxBlockSize 1
[OGL LOG][Proc: 0]p: init_precond: 0.479 [ms]
[OGL LOG][StoppingCriterion.H:373] Creating stopping criterion with minIter 396 frequency 9
[OGL LOG][Proc: 0]p: generate_solver: 0.002 [ms]
[OGL LOG][Proc: 0]p: solve: 349.69 [ms]
[OGL LOG][Proc: 0]p: copy_x_back: 1.288 [ms]
[OGL LOG][lduLduBase.H:336] 
Statistics:
	Time per iteration: 880 [mu s]
	Time per residual norm calculation: 273.000000 [mu s]
	Time per iteration and DOF: 0.139525 [ns]
	Retrieve results bandwidth 2.960000 [GByte/s]
[OGL LOG][Proc: 0]p: solve_multi_gpu: 357.282 [ms]
BJhipGKOCG:  Solving for p, Initial residual = 0.04813794394891818, Final residual = 0.0002479157291717284, No Iterations 397
[INFO] SolveP: 370.936 [ms]
time step continuity errors : sum local = 0.001893820780867078, global = 0.0002346787560303408, cumulative = 0.00168901204050229
[INFO] postSolveP: 22.077 [ms]
smoothSolver:  Solving for nuTilda, Initial residual = 0.05814585705226987, Final residual = 0.004800099851217333, No Iterations 2
[INFO] TimeStep: 1792.232 [ms]
ExecutionTime = 43.25 s  ClockTime = 44 s

Time = 15

velocityDampingConstraint velocityDamping damped 0 (0%) of cells, with max limit 300
[INFO] MatrixAssemblyU: 537.644 [ms]
smoothSolver:  Solving for Ux, Initial residual = 0.01285642024471938, Final residual = 0.001111203225648856, No Iterations 13
smoothSolver:  Solving for Uy, Initial residual = 0.04029341112283337, Final residual = 0.003984060747039525, No Iterations 12
smoothSolver:  Solving for Uz, Initial residual = 0.04169165264962176, Final residual = 0.004041215932501395, No Iterations 12
[INFO] MomentumPredictor: 426.039 [ms]
[INFO] MatrixAssemblyPI: 82.33499999999999 [ms]
[INFO] MatrixAssemblyPII: 40.608 [ms]
[OGL LOG][Proc: 0]: global_index_init: 0.032 [ms]
[OGL LOG][Proc: 0]p_local_coeffs: call_update: 0 [ms]
[OGL LOG][Proc: 0]p_non_local_coeffs: call_update: 0 [ms]
[OGL LOG][Proc: 0]p: update_local_matrix_data: 11.559 [ms]
[OGL LOG][Proc: 0]p: update_non_local_matrix_data: 0.06900000000000001 [ms]
[OGL LOG][Proc: 0]p_matrix: call_update: 3.263 [ms]
[OGL LOG][Proc: 0]p_rhs: call_update: 1.716 [ms]
[OGL LOG][Preconditioner.H:121] Generate preconditioner BJ MaxBlockSize 1
[OGL LOG][Proc: 0]p: init_precond: 0.384 [ms]
[OGL LOG][StoppingCriterion.H:373] Creating stopping criterion with minIter 238 frequency 7
[OGL LOG][Proc: 0]p: generate_solver: 0.002 [ms]
[OGL LOG][Proc: 0]p: solve: 220.198 [ms]
[OGL LOG][Proc: 0]p: copy_x_back: 1.286 [ms]
[OGL LOG][lduLduBase.H:336] 
Statistics:
	Time per iteration: 895 [mu s]
	Time per residual norm calculation: 260.000000 [mu s]
	Time per iteration and DOF: 0.141903 [ns]
	Retrieve results bandwidth 2.964000 [GByte/s]
[OGL LOG][Proc: 0]p: solve_multi_gpu: 227.378 [ms]
BJhipGKOCG:  Solving for p, Initial residual = 0.04613381819660784, Final residual = 0.000448005570786064, No Iterations 246
[INFO] SolveP: 241.073 [ms]
time step continuity errors : sum local = 0.003463424232176407, global = 0.0005006794115669184, cumulative = 0.002189691452069209
[INFO] postSolveP: 21.659 [ms]
smoothSolver:  Solving for nuTilda, Initial residual = 0.03137597785497508, Final residual = 0.002661027937307415, No Iterations 3
[INFO] TimeStep: 1671.048 [ms]
ExecutionTime = 45.35 s  ClockTime = 46 s

Time = 16

velocityDampingConstraint velocityDamping damped 0 (0%) of cells, with max limit 300
[INFO] MatrixAssemblyU: 538.0309999999999 [ms]
smoothSolver:  Solving for Ux, Initial residual = 0.01220897145606832, Final residual = 0.001054943984139838, No Iterations 13
smoothSolver:  Solving for Uy, Initial residual = 0.03935226097803014, Final residual = 0.003914134719736547, No Iterations 12
smoothSolver:  Solving for Uz, Initial residual = 0.04158101393531242, Final residual = 0.004052887054918193, No Iterations 12
[INFO] MomentumPredictor: 421.698 [ms]
[INFO] MatrixAssemblyPI: 82.268 [ms]
[INFO] MatrixAssemblyPII: 41.084 [ms]
[OGL LOG][Proc: 0]: global_index_init: 0.17 [ms]
[OGL LOG][Proc: 0]p_local_coeffs: call_update: 0 [ms]
[OGL LOG][Proc: 0]p_non_local_coeffs: call_update: 0 [ms]
[OGL LOG][Proc: 0]p: update_local_matrix_data: 10.802 [ms]
[OGL LOG][Proc: 0]p: update_non_local_matrix_data: 0.073 [ms]
[OGL LOG][Proc: 0]p_matrix: call_update: 3.54 [ms]
[OGL LOG][Proc: 0]p_rhs: call_update: 4.25 [ms]
[OGL LOG][Preconditioner.H:121] Generate preconditioner BJ MaxBlockSize 1
[OGL LOG][Proc: 0]p: init_precond: 0.445 [ms]
[OGL LOG][StoppingCriterion.H:373] Creating stopping criterion with minIter 147 frequency 5
[OGL LOG][Proc: 0]p: generate_solver: 0.002 [ms]
[OGL LOG][Proc: 0]p: solve: 279.361 [ms]
[OGL LOG][Proc: 0]p: copy_x_back: 1.312 [ms]
[OGL LOG][lduLduBase.H:336] 
Statistics:
	Time per iteration: 928 [mu s]
	Time per residual norm calculation: 255.000000 [mu s]
	Time per iteration and DOF: 0.147135 [ns]
	Retrieve results bandwidth 2.906000 [GByte/s]
[OGL LOG][Proc: 0]p: solve_multi_gpu: 289.456 [ms]
BJhipGKOCG:  Solving for p, Initial residual = 0.04481567149591462, Final residual = 0.0004479669792874297, No Iterations 301
[INFO] SolveP: 302.665 [ms]
time step continuity errors : sum local = 0.003475663096222327, global = 0.0006605359220631058, cumulative = 0.002850227374132314
[INFO] postSolveP: 21.964 [ms]
smoothSolver:  Solving for nuTilda, Initial residual = 0.05169020727091859, Final residual = 0.004552335650475876, No Iterations 2
[INFO] TimeStep: 1718.612 [ms]
ExecutionTime = 47.5 s  ClockTime = 48 s

Time = 17

velocityDampingConstraint velocityDamping damped 0 (0%) of cells, with max limit 300
[INFO] MatrixAssemblyU: 537.204 [ms]
smoothSolver:  Solving for Ux, Initial residual = 0.01158592173432748, Final residual = 0.00100678295952592, No Iterations 13
smoothSolver:  Solving for Uy, Initial residual = 0.0388484347541694, Final residual = 0.003304719290629375, No Iterations 13
smoothSolver:  Solving for Uz, Initial residual = 0.04147686612057692, Final residual = 0.004046899369469122, No Iterations 12
[INFO] MomentumPredictor: 427.881 [ms]
[INFO] MatrixAssemblyPI: 88.64700000000001 [ms]
[INFO] MatrixAssemblyPII: 40.299 [ms]
[OGL LOG][Proc: 0]: global_index_init: 0.08799999999999999 [ms]
[OGL LOG][Proc: 0]p_local_coeffs: call_update: 0 [ms]
[OGL LOG][Proc: 0]p_non_local_coeffs: call_update: 0 [ms]
[OGL LOG][Proc: 0]p: update_local_matrix_data: 11.081 [ms]
[OGL LOG][Proc: 0]p: update_non_local_matrix_data: 0.08500000000000001 [ms]
[OGL LOG][Proc: 0]p_matrix: call_update: 3.364 [ms]
[OGL LOG][Proc: 0]p_rhs: call_update: 2.089 [ms]
[OGL LOG][Preconditioner.H:121] Generate preconditioner BJ MaxBlockSize 1
[OGL LOG][Proc: 0]p: init_precond: 0.451 [ms]
[OGL LOG][StoppingCriterion.H:373] Creating stopping criterion with minIter 180 frequency 6
[OGL LOG][Proc: 0]p: generate_solver: 0.002 [ms]
[OGL LOG][Proc: 0]p: solve: 560.458 [ms]
[OGL LOG][Proc: 0]p: copy_x_back: 1.259 [ms]
[OGL LOG][lduLduBase.H:336] 
Statistics:
	Time per iteration: 863 [mu s]
	Time per residual norm calculation: 259.000000 [mu s]
	Time per iteration and DOF: 0.136829 [ns]
	Retrieve results bandwidth 3.028000 [GByte/s]
[OGL LOG][Proc: 0]p: solve_multi_gpu: 568.178 [ms]
BJhipGKOCG:  Solving for p, Initial residual = 0.04421720007474484, Final residual = 0.000440986770367062, No Iterations 649
[INFO] SolveP: 581.351 [ms]
time step continuity errors : sum local = 0.003453160843732197, global = -0.0001354003006814329, cumulative = 0.002714827073450882
[INFO] postSolveP: 21.598 [ms]
smoothSolver:  Solving for nuTilda, Initial residual = 0.02892086471193782, Final residual = 0.002511562142775072, No Iterations 3
[INFO] TimeStep: 2015.683 [ms]
ExecutionTime = 49.94 s  ClockTime = 50 s

Time = 18

velocityDampingConstraint velocityDamping damped 0 (0%) of cells, with max limit 300
[INFO] MatrixAssemblyU: 534.572 [ms]
smoothSolver:  Solving for Ux, Initial residual = 0.01121040180722495, Final residual = 0.0009654702067392308, No Iterations 13
smoothSolver:  Solving for Uy, Initial residual = 0.03877395018082433, Final residual = 0.003302191619337581, No Iterations 13
smoothSolver:  Solving for Uz, Initial residual = 0.04190185772075357, Final residual = 0.004075188304104137, No Iterations 12
[INFO] MomentumPredictor: 428.569 [ms]
[INFO] MatrixAssemblyPI: 82.95699999999999 [ms]
[INFO] MatrixAssemblyPII: 40.728 [ms]
[OGL LOG][Proc: 0]: global_index_init: 0.141 [ms]
[OGL LOG][Proc: 0]p_local_coeffs: call_update: 0 [ms]
[OGL LOG][Proc: 0]p_non_local_coeffs: call_update: 0 [ms]
[OGL LOG][Proc: 0]p: update_local_matrix_data: 11.111 [ms]
[OGL LOG][Proc: 0]p: update_non_local_matrix_data: 0.07000000000000001 [ms]
[OGL LOG][Proc: 0]p_matrix: call_update: 3.354 [ms]
[OGL LOG][Proc: 0]p_rhs: call_update: 1.61 [ms]
[OGL LOG][Preconditioner.H:121] Generate preconditioner BJ MaxBlockSize 1
[OGL LOG][Proc: 0]p: init_precond: 0.361 [ms]
[OGL LOG][StoppingCriterion.H:373] Creating stopping criterion with minIter 389 frequency 9
[OGL LOG][Proc: 0]p: generate_solver: 0.002 [ms]
[OGL LOG][Proc: 0]p: solve: 345.929 [ms]
[OGL LOG][Proc: 0]p: copy_x_back: 1.32 [ms]
[OGL LOG][lduLduBase.H:336] 
Statistics:
	Time per iteration: 871 [mu s]
	Time per residual norm calculation: 275.000000 [mu s]
	Time per iteration and DOF: 0.138098 [ns]
	Retrieve results bandwidth 2.888000 [GByte/s]
[OGL LOG][Proc: 0]p: solve_multi_gpu: 353.144 [ms]
BJhipGKOCG:  Solving for p, Initial residual = 0.04279638371336226, Final residual = 0.0001566827587109553, No Iterations 397
[INFO] SolveP: 366.362 [ms]
time step continuity errors : sum local = 0.001272459031913894, global = -0.0002303877970993187, cumulative = 0.002484439276351563
[INFO] postSolveP: 22.354 [ms]
smoothSolver:  Solving for nuTilda, Initial residual = 0.04634515406954034, Final residual = 0.004300904667374025, No Iterations 2
[INFO] TimeStep: 1785.961 [ms]
ExecutionTime = 52.14 s  ClockTime = 53 s

Time = 19

velocityDampingConstraint velocityDamping damped 0 (0%) of cells, with max limit 300
[INFO] MatrixAssemblyU: 533.4109999999999 [ms]
smoothSolver:  Solving for Ux, Initial residual = 0.01084712456319759, Final residual = 0.000935125694477681, No Iterations 13
smoothSolver:  Solving for Uy, Initial residual = 0.03895234690906084, Final residual = 0.003324111818972407, No Iterations 13
smoothSolver:  Solving for Uz, Initial residual = 0.04247699456760709, Final residual = 0.004103318462710719, No Iterations 12
[INFO] MomentumPredictor: 426.185 [ms]
[INFO] MatrixAssemblyPI: 82.279 [ms]
[INFO] MatrixAssemblyPII: 40.719 [ms]
[OGL LOG][Proc: 0]: global_index_init: 0.036 [ms]
[OGL LOG][Proc: 0]p_local_coeffs: call_update: 0 [ms]
[OGL LOG][Proc: 0]p_non_local_coeffs: call_update: 0 [ms]
[OGL LOG][Proc: 0]p: update_local_matrix_data: 10.926 [ms]
[OGL LOG][Proc: 0]p: update_non_local_matrix_data: 0.08600000000000001 [ms]
[OGL LOG][Proc: 0]p_matrix: call_update: 3.791 [ms]
[OGL LOG][Proc: 0]p_rhs: call_update: 2.271 [ms]
[OGL LOG][Preconditioner.H:121] Generate preconditioner BJ MaxBlockSize 1
[OGL LOG][Proc: 0]p: init_precond: 0.391 [ms]
[OGL LOG][StoppingCriterion.H:373] Creating stopping criterion with minIter 238 frequency 7
[OGL LOG][Proc: 0]p: generate_solver: 0.002 [ms]
[OGL LOG][Proc: 0]p: solve: 275.401 [ms]
[OGL LOG][Proc: 0]p: copy_x_back: 1.275 [ms]
[OGL LOG][lduLduBase.H:336] 
Statistics:
	Time per iteration: 980 [mu s]
	Time per residual norm calculation: 255.000000 [mu s]
	Time per iteration and DOF: 0.155380 [ns]
	Retrieve results bandwidth 2.990000 [GByte/s]
[OGL LOG][Proc: 0]p: solve_multi_gpu: 283.67 [ms]
BJhipGKOCG:  Solving for p, Initial residual = 0.0432681517489014, Final residual = 0.0004184540342472731, No Iterations 281
[INFO] SolveP: 296.995 [ms]
time step continuity errors : sum local = 0.003400623048349149, global = -0.000426453691618673, cumulative = 0.00205798558473289
[INFO] postSolveP: 22.665 [ms]
smoothSolver:  Solving for nuTilda, Initial residual = 0.02699820695230316, Final residual = 0.002362520559243536, No Iterations 3
[INFO] TimeStep: 1725.289 [ms]
ExecutionTime = 54.29 s  ClockTime = 55 s

Time = 20

velocityDampingConstraint velocityDamping damped 0 (0%) of cells, with max limit 300
[INFO] MatrixAssemblyU: 534.003 [ms]
smoothSolver:  Solving for Ux, Initial residual = 0.01067637590020609, Final residual = 0.0009154207561336751, No Iterations 13
smoothSolver:  Solving for Uy, Initial residual = 0.03937827160670843, Final residual = 0.003930917855629024, No Iterations 12
smoothSolver:  Solving for Uz, Initial residual = 0.04306015646046287, Final residual = 0.004137593145674763, No Iterations 12
[INFO] MomentumPredictor: 424.397 [ms]
[INFO] MatrixAssemblyPI: 82.355 [ms]
[INFO] MatrixAssemblyPII: 40.56 [ms]
[OGL LOG][Proc: 0]: global_index_init: 0.082 [ms]
[OGL LOG][Proc: 0]p_local_coeffs: call_update: 0 [ms]
[OGL LOG][Proc: 0]p_non_local_coeffs: call_update: 0 [ms]
[OGL LOG][Proc: 0]p: update_local_matrix_data: 11.485 [ms]
[OGL LOG][Proc: 0]p: update_non_local_matrix_data: 0.102 [ms]
[OGL LOG][Proc: 0]p_matrix: call_update: 4.083 [ms]
[OGL LOG][Proc: 0]p_rhs: call_update: 1.268 [ms]
[OGL LOG][Preconditioner.H:121] Generate preconditioner BJ MaxBlockSize 1
[OGL LOG][Proc: 0]p: init_precond: 0.4 [ms]
[OGL LOG][StoppingCriterion.H:373] Creating stopping criterion with minIter 168 frequency 6
[OGL LOG][Proc: 0]p: generate_solver: 0.002 [ms]
[OGL LOG][Proc: 0]p: solve: 335.338 [ms]
[OGL LOG][Proc: 0]p: copy_x_back: 1.23 [ms]
[OGL LOG][lduLduBase.H:336] 
Statistics:
	Time per iteration: 913 [mu s]
	Time per residual norm calculation: 255.000000 [mu s]
	Time per iteration and DOF: 0.144757 [ns]
	Retrieve results bandwidth 3.099000 [GByte/s]
[OGL LOG][Proc: 0]p: solve_multi_gpu: 342.852 [ms]
BJhipGKOCG:  Solving for p, Initial residual = 0.04340758423684499, Final residual = 0.0004331057363186637, No Iterations 367
[INFO] SolveP: 356.877 [ms]
time step continuity errors : sum local = 0.003533593187956758, global = -0.0004503091067989286, cumulative = 0.001607676477933961
[INFO] postSolveP: 22.364 [ms]
smoothSolver:  Solving for nuTilda, Initial residual = 0.04180461755967087, Final residual = 0.004047435803771139, No Iterations 2
[INFO] TimeStep: 1769.331 [ms]
ExecutionTime = 56.49 s  ClockTime = 57 s

Time = 21

velocityDampingConstraint velocityDamping damped 0 (0%) of cells, with max limit 300
[INFO] MatrixAssemblyU: 536.396 [ms]
smoothSolver:  Solving for Ux, Initial residual = 0.01049556094014976, Final residual = 0.0009028754783965958, No Iterations 13
smoothSolver:  Solving for Uy, Initial residual = 0.04002065317674679, Final residual = 0.003974562090722142, No Iterations 12
smoothSolver:  Solving for Uz, Initial residual = 0.04340177335775954, Final residual = 0.004130562391682438, No Iterations 12
[INFO] MomentumPredictor: 426.98 [ms]
[INFO] MatrixAssemblyPI: 84.611 [ms]
[INFO] MatrixAssemblyPII: 40.614 [ms]
[OGL LOG][Proc: 0]: global_index_init: 0.057 [ms]
[OGL LOG][Proc: 0]p_local_coeffs: call_update: 0 [ms]
[OGL LOG][Proc: 0]p_non_local_coeffs: call_update: 0 [ms]
[OGL LOG][Proc: 0]p: update_local_matrix_data: 11.196 [ms]
[OGL LOG][Proc: 0]p: update_non_local_matrix_data: 0.089 [ms]
[OGL LOG][Proc: 0]p_matrix: call_update: 3.684 [ms]
[OGL LOG][Proc: 0]p_rhs: call_update: 1.331 [ms]
[OGL LOG][Preconditioner.H:121] Generate preconditioner BJ MaxBlockSize 1
[OGL LOG][Proc: 0]p: init_precond: 0.351 [ms]
[OGL LOG][StoppingCriterion.H:373] Creating stopping criterion with minIter 220 frequency 6
[OGL LOG][Proc: 0]p: generate_solver: 0.002 [ms]
[OGL LOG][Proc: 0]p: solve: 395.415 [ms]
[OGL LOG][Proc: 0]p: copy_x_back: 1.259 [ms]
[OGL LOG][lduLduBase.H:336] 
Statistics:
	Time per iteration: 926 [mu s]
	Time per residual norm calculation: 255.000000 [mu s]
	Time per iteration and DOF: 0.146818 [ns]
	Retrieve results bandwidth 3.028000 [GByte/s]
[OGL LOG][Proc: 0]p: solve_multi_gpu: 402.586 [ms]
BJhipGKOCG:  Solving for p, Initial residual = 0.04355907648539648, Final residual = 0.0004352439480282348, No Iterations 427
[INFO] SolveP: 415.956 [ms]
time step continuity errors : sum local = 0.003586765210340386, global = -0.0004600914851327477, cumulative = 0.001147584992801214
[INFO] postSolveP: 22.167 [ms]
smoothSolver:  Solving for nuTilda, Initial residual = 0.02521287612700519, Final residual = 0.002218136796398208, No Iterations 3
[INFO] TimeStep: 1845.244 [ms]
ExecutionTime = 58.77 s  ClockTime = 59 s

Time = 22

velocityDampingConstraint velocityDamping damped 0 (0%) of cells, with max limit 300
[INFO] MatrixAssemblyU: 535.204 [ms]
smoothSolver:  Solving for Ux, Initial residual = 0.01047780353989019, Final residual = 0.001046887811244949, No Iterations 12
smoothSolver:  Solving for Uy, Initial residual = 0.0406589194887158, Final residual = 0.004000284913533413, No Iterations 12
smoothSolver:  Solving for Uz, Initial residual = 0.04328493974037084, Final residual = 0.004087626970181423, No Iterations 12
[INFO] MomentumPredictor: 430.535 [ms]
[INFO] MatrixAssemblyPI: 81.91500000000001 [ms]
[INFO] MatrixAssemblyPII: 40.293 [ms]
[OGL LOG][Proc: 0]: global_index_init: 0.282 [ms]
[OGL LOG][Proc: 0]p_local_coeffs: call_update: 0 [ms]
[OGL LOG][Proc: 0]p_non_local_coeffs: call_update: 0 [ms]
[OGL LOG][Proc: 0]p: update_local_matrix_data: 10.691 [ms]
[OGL LOG][Proc: 0]p: update_non_local_matrix_data: 0.07200000000000001 [ms]
[OGL LOG][Proc: 0]p_matrix: call_update: 4.177 [ms]
[OGL LOG][Proc: 0]p_rhs: call_update: 1.466 [ms]
[OGL LOG][Preconditioner.H:121] Generate preconditioner BJ MaxBlockSize 1
[OGL LOG][Proc: 0]p: init_precond: 0.38 [ms]
[OGL LOG][StoppingCriterion.H:373] Creating stopping criterion with minIter 256 frequency 7
[OGL LOG][Proc: 0]p: generate_solver: 0.002 [ms]
[OGL LOG][Proc: 0]p: solve: 280.647 [ms]
[OGL LOG][Proc: 0]p: copy_x_back: 1.262 [ms]
[OGL LOG][lduLduBase.H:336] 
Statistics:
	Time per iteration: 888 [mu s]
	Time per residual norm calculation: 251.000000 [mu s]
	Time per iteration and DOF: 0.140793 [ns]
	Retrieve results bandwidth 3.021000 [GByte/s]
[OGL LOG][Proc: 0]p: solve_multi_gpu: 288.473 [ms]
BJhipGKOCG:  Solving for p, Initial residual = 0.04354465850247812, Final residual = 0.0004126883588764075, No Iterations 316
[INFO] SolveP: 301.621 [ms]
time step continuity errors : sum local = 0.003429256213080318, global = -0.0003258449048504533, cumulative = 0.0008217400879507602
[INFO] postSolveP: 22.24 [ms]
smoothSolver:  Solving for nuTilda, Initial residual = 0.03795452825748562, Final residual = 0.002018669220399295, No Iterations 3
[INFO] TimeStep: 1731.642 [ms]
ExecutionTime = 60.91 s  ClockTime = 61 s

Time = 23

velocityDampingConstraint velocityDamping damped 0 (0%) of cells, with max limit 300
[INFO] MatrixAssemblyU: 532.962 [ms]
smoothSolver:  Solving for Ux, Initial residual = 0.01035888078625949, Final residual = 0.0008846419937243708, No Iterations 13
smoothSolver:  Solving for Uy, Initial residual = 0.04117873612288565, Final residual = 0.004001772422972856, No Iterations 12
smoothSolver:  Solving for Uz, Initial residual = 0.04290147541648377, Final residual = 0.004012811715599857, No Iterations 12
[INFO] MomentumPredictor: 431.604 [ms]
[INFO] MatrixAssemblyPI: 82.61199999999999 [ms]
[INFO] MatrixAssemblyPII: 40.512 [ms]
[OGL LOG][Proc: 0]: global_index_init: 0.234 [ms]
[OGL LOG][Proc: 0]p_local_coeffs: call_update: 0 [ms]
[OGL LOG][Proc: 0]p_non_local_coeffs: call_update: 0 [ms]
[OGL LOG][Proc: 0]p: update_local_matrix_data: 10.853 [ms]
[OGL LOG][Proc: 0]p: update_non_local_matrix_data: 0.07000000000000001 [ms]
[OGL LOG][Proc: 0]p_matrix: call_update: 3.482 [ms]
[OGL LOG][Proc: 0]p_rhs: call_update: 2.152 [ms]
[OGL LOG][Preconditioner.H:121] Generate preconditioner BJ MaxBlockSize 1
[OGL LOG][Proc: 0]p: init_precond: 0.396 [ms]
[OGL LOG][StoppingCriterion.H:373] Creating stopping criterion with minIter 189 frequency 6
[OGL LOG][Proc: 0]p: generate_solver: 0.002 [ms]
[OGL LOG][Proc: 0]p: solve: 303.594 [ms]
[OGL LOG][Proc: 0]p: copy_x_back: 1.526 [ms]
[OGL LOG][lduLduBase.H:336] 
Statistics:
	Time per iteration: 900 [mu s]
	Time per residual norm calculation: 261.000000 [mu s]
	Time per iteration and DOF: 0.142696 [ns]
	Retrieve results bandwidth 2.498000 [GByte/s]
[OGL LOG][Proc: 0]p: solve_multi_gpu: 311.952 [ms]
BJhipGKOCG:  Solving for p, Initial residual = 0.04356604278966882, Final residual = 0.0004257646615297279, No Iterations 337
[INFO] SolveP: 325.18 [ms]
time step continuity errors : sum local = 0.003567123839007332, global = 1.25045367990104e-05, cumulative = 0.0008342446247497706
[INFO] postSolveP: 21.563 [ms]
smoothSolver:  Solving for nuTilda, Initial residual = 0.02339785579339274, Final residual = 0.002087318812019368, No Iterations 3
[INFO] TimeStep: 1752.921 [ms]
ExecutionTime = 63.09 s  ClockTime = 64 s

Time = 24

velocityDampingConstraint velocityDamping damped 0 (0%) of cells, with max limit 300
[INFO] MatrixAssemblyU: 533.95 [ms]
smoothSolver:  Solving for Ux, Initial residual = 0.01039496423031704, Final residual = 0.00103235465332366, No Iterations 12
smoothSolver:  Solving for Uy, Initial residual = 0.04191712595636844, Final residual = 0.004040469041413846, No Iterations 12
smoothSolver:  Solving for Uz, Initial residual = 0.04252585405742276, Final residual = 0.003939107883482775, No Iterations 12
[INFO] MomentumPredictor: 413.012 [ms]
[INFO] MatrixAssemblyPI: 82.04300000000001 [ms]
[INFO] MatrixAssemblyPII: 40.846 [ms]
[OGL LOG][Proc: 0]: global_index_init: 0.05 [ms]
[OGL LOG][Proc: 0]p_local_coeffs: call_update: 0 [ms]
[OGL LOG][Proc: 0]p_non_local_coeffs: call_update: 0 [ms]
[OGL LOG][Proc: 0]p: update_local_matrix_data: 10.846 [ms]
[OGL LOG][Proc: 0]p: update_non_local_matrix_data: 0.078 [ms]
[OGL LOG][Proc: 0]p_matrix: call_update: 4.073 [ms]
[OGL LOG][Proc: 0]p_rhs: call_update: 1.355 [ms]
[OGL LOG][Preconditioner.H:121] Generate preconditioner BJ MaxBlockSize 1
[OGL LOG][Proc: 0]p: init_precond: 0.357 [ms]
[OGL LOG][StoppingCriterion.H:373] Creating stopping criterion with minIter 202 frequency 6
[OGL LOG][Proc: 0]p: generate_solver: 0.002 [ms]
[OGL LOG][Proc: 0]p: solve: 314.398 [ms]
[OGL LOG][Proc: 0]p: copy_x_back: 1.257 [ms]
[OGL LOG][lduLduBase.H:336] 
Statistics:
	Time per iteration: 932 [mu s]
	Time per residual norm calculation: 256.000000 [mu s]
	Time per iteration and DOF: 0.147769 [ns]
	Retrieve results bandwidth 3.033000 [GByte/s]
[OGL LOG][Proc: 0]p: solve_multi_gpu: 321.99 [ms]
BJhipGKOCG:  Solving for p, Initial residual = 0.04316935302427363, Final residual = 0.0004250346710731183, No Iterations 337
[INFO] SolveP: 335.119 [ms]
time step continuity errors : sum local = 0.003613249599793728, global = 0.0002519653235548841, cumulative = 0.001086209948304655
[INFO] postSolveP: 22.004 [ms]
smoothSolver:  Solving for nuTilda, Initial residual = 0.03445806352761685, Final residual = 0.001909533660663042, No Iterations 3
[INFO] TimeStep: 1745.966 [ms]
ExecutionTime = 65.26000000000001 s  ClockTime = 66 s

Time = 25

velocityDampingConstraint velocityDamping damped 0 (0%) of cells, with max limit 300
[INFO] MatrixAssemblyU: 538.234 [ms]
smoothSolver:  Solving for Ux, Initial residual = 0.01033894757523327, Final residual = 0.0008830498351601289, No Iterations 13
smoothSolver:  Solving for Uy, Initial residual = 0.04272618678021022, Final residual = 0.004132937287296124, No Iterations 12
smoothSolver:  Solving for Uz, Initial residual = 0.04223749360229099, Final residual = 0.003900038216791671, No Iterations 12
[INFO] MomentumPredictor: 426.326 [ms]
[INFO] MatrixAssemblyPI: 81.952 [ms]
[INFO] MatrixAssemblyPII: 40.454 [ms]
[OGL LOG][Proc: 0]: global_index_init: 0.278 [ms]
[OGL LOG][Proc: 0]p_local_coeffs: call_update: 0 [ms]
[OGL LOG][Proc: 0]p_non_local_coeffs: call_update: 0 [ms]
[OGL LOG][Proc: 0]p: update_local_matrix_data: 11.028 [ms]
[OGL LOG][Proc: 0]p: update_non_local_matrix_data: 0.07100000000000001 [ms]
[OGL LOG][Proc: 0]p_matrix: call_update: 3.592 [ms]
[OGL LOG][Proc: 0]p_rhs: call_update: 1.978 [ms]
[OGL LOG][Preconditioner.H:121] Generate preconditioner BJ MaxBlockSize 1
[OGL LOG][Proc: 0]p: init_precond: 0.428 [ms]
[OGL LOG][StoppingCriterion.H:373] Creating stopping criterion with minIter 202 frequency 6
[OGL LOG][Proc: 0]p: generate_solver: 0.002 [ms]
[OGL LOG][Proc: 0]p: solve: 302.175 [ms]
[OGL LOG][Proc: 0]p: copy_x_back: 1.443 [ms]
[OGL LOG][lduLduBase.H:336] 
Statistics:
	Time per iteration: 880 [mu s]
	Time per residual norm calculation: 257.000000 [mu s]
	Time per iteration and DOF: 0.139525 [ns]
	Retrieve results bandwidth 2.642000 [GByte/s]
[OGL LOG][Proc: 0]p: solve_multi_gpu: 310.17 [ms]
BJhipGKOCG:  Solving for p, Initial residual = 0.04257984600399238, Final residual = 0.0004164823994500408, No Iterations 343
[INFO] SolveP: 323.432 [ms]
time step continuity errors : sum local = 0.003596254602791934, global = 0.0005010998222593885, cumulative = 0.001587309770564043
[INFO] postSolveP: 22.22 [ms]
smoothSolver:  Solving for nuTilda, Initial residual = 0.02154123545886926, Final residual = 0.001956155345353926, No Iterations 3
[INFO] TimeStep: 1751.263 [ms]
ExecutionTime = 67.43000000000001 s  ClockTime = 68 s

Time = 26

velocityDampingConstraint velocityDamping damped 0 (0%) of cells, with max limit 300
[INFO] MatrixAssemblyU: 532.491 [ms]
smoothSolver:  Solving for Ux, Initial residual = 0.01041581505616622, Final residual = 0.001035921363005974, No Iterations 12
smoothSolver:  Solving for Uy, Initial residual = 0.04370509654393456, Final residual = 0.004288068136524992, No Iterations 12
smoothSolver:  Solving for Uz, Initial residual = 0.04225342377896872, Final residual = 0.003942319408678417, No Iterations 12
[INFO] MomentumPredictor: 416.007 [ms]
[INFO] MatrixAssemblyPI: 82.051 [ms]
[INFO] MatrixAssemblyPII: 40.568 [ms]
[OGL LOG][Proc: 0]: global_index_init: 0.472 [ms]
[OGL LOG][Proc: 0]p_local_coeffs: call_update: 0 [ms]
[OGL LOG][Proc: 0]p_non_local_coeffs: call_update: 0 [ms]
[OGL LOG][Proc: 0]p: update_local_matrix_data: 11.448 [ms]
[OGL LOG][Proc: 0]p: update_non_local_matrix_data: 0.105 [ms]
[OGL LOG][Proc: 0]p_matrix: call_update: 6.233000000000001 [ms]
[OGL LOG][Proc: 0]p_rhs: call_update: 1.285 [ms]
[OGL LOG][Preconditioner.H:121] Generate preconditioner BJ MaxBlockSize 1
[OGL LOG][Proc: 0]p: init_precond: 0.506 [ms]
[OGL LOG][StoppingCriterion.H:373] Creating stopping criterion with minIter 205 frequency 6
[OGL LOG][Proc: 0]p: generate_solver: 0.002 [ms]
[OGL LOG][Proc: 0]p: solve: 337.45 [ms]
[OGL LOG][Proc: 0]p: copy_x_back: 1.273 [ms]
[OGL LOG][lduLduBase.H:336] 
Statistics:
	Time per iteration: 919 [mu s]
	Time per residual norm calculation: 256.000000 [mu s]
	Time per iteration and DOF: 0.145708 [ns]
	Retrieve results bandwidth 2.995000 [GByte/s]
[OGL LOG][Proc: 0]p: solve_multi_gpu: 347.284 [ms]
BJhipGKOCG:  Solving for p, Initial residual = 0.04216764897108975, Final residual = 0.0004199727826512415, No Iterations 367
[INFO] SolveP: 361.362 [ms]
time step continuity errors : sum local = 0.003679376659595352, global = 0.0006829999832275618, cumulative = 0.002270309753791605
[INFO] postSolveP: 24.373 [ms]
smoothSolver:  Solving for nuTilda, Initial residual = 0.03149502708224908, Final residual = 0.00180390031176609, No Iterations 3
[INFO] TimeStep: 1776.609 [ms]
ExecutionTime = 69.63 s  ClockTime = 70 s

Time = 27

velocityDampingConstraint velocityDamping damped 0 (0%) of cells, with max limit 300
[INFO] MatrixAssemblyU: 533.341 [ms]
smoothSolver:  Solving for Ux, Initial residual = 0.01041026065924999, Final residual = 0.00103688545249963, No Iterations 12
smoothSolver:  Solving for Uy, Initial residual = 0.04475349808357363, Final residual = 0.004453668363534508, No Iterations 12
smoothSolver:  Solving for Uz, Initial residual = 0.04252203692184253, Final residual = 0.004016984474911309, No Iterations 12
[INFO] MomentumPredictor: 420.033 [ms]
[INFO] MatrixAssemblyPI: 82.113 [ms]
[INFO] MatrixAssemblyPII: 40.392 [ms]
[OGL LOG][Proc: 0]: global_index_init: 0.093 [ms]
[OGL LOG][Proc: 0]p_local_coeffs: call_update: 0 [ms]
[OGL LOG][Proc: 0]p_non_local_coeffs: call_update: 0 [ms]
[OGL LOG][Proc: 0]p: update_local_matrix_data: 10.901 [ms]
[OGL LOG][Proc: 0]p: update_non_local_matrix_data: 0.075 [ms]
[OGL LOG][Proc: 0]p_matrix: call_update: 3.36 [ms]
[OGL LOG][Proc: 0]p_rhs: call_update: 4.231 [ms]
[OGL LOG][Preconditioner.H:121] Generate preconditioner BJ MaxBlockSize 1
[OGL LOG][Proc: 0]p: init_precond: 0.385 [ms]
[OGL LOG][StoppingCriterion.H:373] Creating stopping criterion with minIter 220 frequency 6
[OGL LOG][Proc: 0]p: generate_solver: 0.002 [ms]
[OGL LOG][Proc: 0]p: solve: 636.436 [ms]
[OGL LOG][Proc: 0]p: copy_x_back: 1.287 [ms]
[OGL LOG][lduLduBase.H:336] 
Statistics:
	Time per iteration: 868 [mu s]
	Time per residual norm calculation: 254.000000 [mu s]
	Time per iteration and DOF: 0.137622 [ns]
	Retrieve results bandwidth 2.962000 [GByte/s]
[OGL LOG][Proc: 0]p: solve_multi_gpu: 646.253 [ms]
BJhipGKOCG:  Solving for p, Initial residual = 0.04231372266646612, Final residual = 0.000415954241088581, No Iterations 733
[INFO] SolveP: 659.691 [ms]
time step continuity errors : sum local = 0.003701236617315222, global = -0.0001102835325961949, cumulative = 0.00216002622119541
[INFO] postSolveP: 22.722 [ms]
smoothSolver:  Solving for nuTilda, Initial residual = 0.01984615147259781, Final residual = 0.001830483000058135, No Iterations 3
[INFO] TimeStep: 2077.34 [ms]
ExecutionTime = 72.13 s  ClockTime = 73 s

Time = 28

velocityDampingConstraint velocityDamping damped 0 (0%) of cells, with max limit 300
[INFO] MatrixAssemblyU: 532.631 [ms]
smoothSolver:  Solving for Ux, Initial residual = 0.01056246705088922, Final residual = 0.001038924061113784, No Iterations 12
smoothSolver:  Solving for Uy, Initial residual = 0.04634090639494754, Final residual = 0.003954266388992195, No Iterations 13
smoothSolver:  Solving for Uz, Initial residual = 0.04365269431806881, Final residual = 0.00412780245867232, No Iterations 12
[INFO] MomentumPredictor: 428.339 [ms]
[INFO] MatrixAssemblyPI: 81.97799999999999 [ms]
[INFO] MatrixAssemblyPII: 40.537 [ms]
[OGL LOG][Proc: 0]: global_index_init: 0.307 [ms]
[OGL LOG][Proc: 0]p_local_coeffs: call_update: 0 [ms]
[OGL LOG][Proc: 0]p_non_local_coeffs: call_update: 0 [ms]
[OGL LOG][Proc: 0]p: update_local_matrix_data: 11.207 [ms]
[OGL LOG][Proc: 0]p: update_non_local_matrix_data: 0.08500000000000001 [ms]
[OGL LOG][Proc: 0]p_matrix: call_update: 3.306 [ms]
[OGL LOG][Proc: 0]p_rhs: call_update: 2.335 [ms]
[OGL LOG][Preconditioner.H:121] Generate preconditioner BJ MaxBlockSize 1
[OGL LOG][Proc: 0]p: init_precond: 0.395 [ms]
[OGL LOG][StoppingCriterion.H:373] Creating stopping criterion with minIter 439 frequency 9
[OGL LOG][Proc: 0]p: generate_solver: 0.002 [ms]
[OGL LOG][Proc: 0]p: solve: 376.247 [ms]
[OGL LOG][Proc: 0]p: copy_x_back: 1.267 [ms]
[OGL LOG][lduLduBase.H:336] 
Statistics:
	Time per iteration: 851 [mu s]
	Time per residual norm calculation: 271.000000 [mu s]
	Time per iteration and DOF: 0.134927 [ns]
	Retrieve results bandwidth 3.009000 [GByte/s]
[OGL LOG][Proc: 0]p: solve_multi_gpu: 384.074 [ms]
BJhipGKOCG:  Solving for p, Initial residual = 0.04204224247095209, Final residual = 0.0001182897222936599, No Iterations 442
[INFO] SolveP: 397.905 [ms]
time step continuity errors : sum local = 0.001097307496689396, global = -0.0001927027978799717, cumulative = 0.001967323423315438
[INFO] postSolveP: 21.741 [ms]
smoothSolver:  Solving for nuTilda, Initial residual = 0.02895535629725966, Final residual = 0.001696306979492239, No Iterations 3
[INFO] TimeStep: 1821.325 [ms]
ExecutionTime = 74.38 s  ClockTime = 75 s

Time = 29

velocityDampingConstraint velocityDamping damped 0 (0%) of cells, with max limit 300
[INFO] MatrixAssemblyU: 531.2670000000001 [ms]
smoothSolver:  Solving for Ux, Initial residual = 0.01055346980361361, Final residual = 0.001040263143936208, No Iterations 12
smoothSolver:  Solving for Uy, Initial residual = 0.0477398239764258, Final residual = 0.00409212993181001, No Iterations 13
smoothSolver:  Solving for Uz, Initial residual = 0.04491739365980658, Final residual = 0.004268563280695693, No Iterations 12
[INFO] MomentumPredictor: 427.021 [ms]
[INFO] MatrixAssemblyPI: 82.506 [ms]
[INFO] MatrixAssemblyPII: 40.263 [ms]
[OGL LOG][Proc: 0]: global_index_init: 0.034 [ms]
[OGL LOG][Proc: 0]p_local_coeffs: call_update: 0 [ms]
[OGL LOG][Proc: 0]p_non_local_coeffs: call_update: 0 [ms]
[OGL LOG][Proc: 0]p: update_local_matrix_data: 11.088 [ms]
[OGL LOG][Proc: 0]p: update_non_local_matrix_data: 0.08600000000000001 [ms]
[OGL LOG][Proc: 0]p_matrix: call_update: 3.833 [ms]
[OGL LOG][Proc: 0]p_rhs: call_update: 1.292 [ms]
[OGL LOG][Preconditioner.H:121] Generate preconditioner BJ MaxBlockSize 1
[OGL LOG][Proc: 0]p: init_precond: 0.378 [ms]
[OGL LOG][StoppingCriterion.H:373] Creating stopping criterion with minIter 265 frequency 7
[OGL LOG][Proc: 0]p: generate_solver: 0.002 [ms]
[OGL LOG][Proc: 0]p: solve: 248.423 [ms]
[OGL LOG][Proc: 0]p: copy_x_back: 1.283 [ms]
[OGL LOG][lduLduBase.H:336] 
Statistics:
	Time per iteration: 906 [mu s]
	Time per residual norm calculation: 256.000000 [mu s]
	Time per iteration and DOF: 0.143647 [ns]
	Retrieve results bandwidth 2.971000 [GByte/s]
[OGL LOG][Proc: 0]p: solve_multi_gpu: 255.787 [ms]
BJhipGKOCG:  Solving for p, Initial residual = 0.04322173817687454, Final residual = 0.0004270877509900126, No Iterations 274
[INFO] SolveP: 269.077 [ms]
time step continuity errors : sum local = 0.003977296349274278, global = -0.0003560530351915609, cumulative = 0.001611270388123877
[INFO] postSolveP: 22.894 [ms]
smoothSolver:  Solving for nuTilda, Initial residual = 0.01835063101170085, Final residual = 0.001706783379188114, No Iterations 3
[INFO] TimeStep: 1693.108 [ms]
ExecutionTime = 76.48999999999999 s  ClockTime = 77 s

Time = 30

velocityDampingConstraint velocityDamping damped 0 (0%) of cells, with max limit 300
[INFO] MatrixAssemblyU: 534.292 [ms]
smoothSolver:  Solving for Ux, Initial residual = 0.01076061560659639, Final residual = 0.001046952823870655, No Iterations 12
smoothSolver:  Solving for Uy, Initial residual = 0.04976383093035497, Final residual = 0.00424175144200573, No Iterations 13
smoothSolver:  Solving for Uz, Initial residual = 0.04653913197429151, Final residual = 0.00440661258228505, No Iterations 12
[INFO] MomentumPredictor: 423.696 [ms]
[INFO] MatrixAssemblyPI: 82.254 [ms]
[INFO] MatrixAssemblyPII: 40.394 [ms]
[OGL LOG][Proc: 0]: global_index_init: 0.316 [ms]
[OGL LOG][Proc: 0]p_local_coeffs: call_update: 0 [ms]
[OGL LOG][Proc: 0]p_non_local_coeffs: call_update: 0 [ms]
[OGL LOG][Proc: 0]p: update_local_matrix_data: 10.937 [ms]
[OGL LOG][Proc: 0]p: update_non_local_matrix_data: 0.073 [ms]
[OGL LOG][Proc: 0]p_matrix: call_update: 3.512 [ms]
[OGL LOG][Proc: 0]p_rhs: call_update: 2.324 [ms]
[OGL LOG][Preconditioner.H:121] Generate preconditioner BJ MaxBlockSize 1
[OGL LOG][Proc: 0]p: init_precond: 0.446 [ms]
[OGL LOG][StoppingCriterion.H:373] Creating stopping criterion with minIter 164 frequency 6
[OGL LOG][Proc: 0]p: generate_solver: 0.002 [ms]
[OGL LOG][Proc: 0]p: solve: 333.722 [ms]
[OGL LOG][Proc: 0]p: copy_x_back: 1.279 [ms]
[OGL LOG][lduLduBase.H:336] 
Statistics:
	Time per iteration: 894 [mu s]
	Time per residual norm calculation: 257.000000 [mu s]
	Time per iteration and DOF: 0.141744 [ns]
	Retrieve results bandwidth 2.981000 [GByte/s]
[OGL LOG][Proc: 0]p: solve_multi_gpu: 341.853 [ms]
BJhipGKOCG:  Solving for p, Initial residual = 0.04443827466733914, Final residual = 0.000444187146928742, No Iterations 373
[INFO] SolveP: 355.233 [ms]
time step continuity errors : sum local = 0.004166101956111269, global = -0.0004524938031949311, cumulative = 0.001158776584928946
[INFO] postSolveP: 21.894 [ms]
smoothSolver:  Solving for nuTilda, Initial residual = 0.02676423062377666, Final residual = 0.001589206318319004, No Iterations 3
[INFO] TimeStep: 1779.17 [ms]
ExecutionTime = 78.69 s  ClockTime = 79 s

Time = 31

velocityDampingConstraint velocityDamping damped 0 (0%) of cells, with max limit 300
[INFO] MatrixAssemblyU: 532.02 [ms]
smoothSolver:  Solving for Ux, Initial residual = 0.01083383509193749, Final residual = 0.00105463300181783, No Iterations 12
smoothSolver:  Solving for Uy, Initial residual = 0.05217059286526937, Final residual = 0.005197322335771975, No Iterations 12
smoothSolver:  Solving for Uz, Initial residual = 0.04826954067493943, Final residual = 0.004574267472539711, No Iterations 12
[INFO] MomentumPredictor: 415.282 [ms]
[INFO] MatrixAssemblyPI: 82.364 [ms]
[INFO] MatrixAssemblyPII: 40.654 [ms]
[OGL LOG][Proc: 0]: global_index_init: 0.25 [ms]
[OGL LOG][Proc: 0]p_local_coeffs: call_update: 0 [ms]
[OGL LOG][Proc: 0]p_non_local_coeffs: call_update: 0 [ms]
[OGL LOG][Proc: 0]p: update_local_matrix_data: 10.978 [ms]
[OGL LOG][Proc: 0]p: update_non_local_matrix_data: 0.078 [ms]
[OGL LOG][Proc: 0]p_matrix: call_update: 3.433 [ms]
[OGL LOG][Proc: 0]p_rhs: call_update: 1.713 [ms]
[OGL LOG][Preconditioner.H:121] Generate preconditioner BJ MaxBlockSize 1
[OGL LOG][Proc: 0]p: init_precond: 0.387 [ms]
[OGL LOG][StoppingCriterion.H:373] Creating stopping criterion with minIter 223 frequency 7
[OGL LOG][Proc: 0]p: generate_solver: 0.002 [ms]
[OGL LOG][Proc: 0]p: solve: 226.47 [ms]
[OGL LOG][Proc: 0]p: copy_x_back: 1.284 [ms]
[OGL LOG][lduLduBase.H:336] 
Statistics:
	Time per iteration: 895 [mu s]
	Time per residual norm calculation: 259.000000 [mu s]
	Time per iteration and DOF: 0.141903 [ns]
	Retrieve results bandwidth 2.969000 [GByte/s]
[OGL LOG][Proc: 0]p: solve_multi_gpu: 233.86 [ms]
[...]
[INFO] SolveP: 237.692 [ms]
time step continuity errors : sum local = 0.005711666277521548, global = -0.0001815942871891349, cumulative = -0.001584706259102536
[INFO] postSolveP: 21.726 [ms]
smoothSolver:  Solving for nuTilda, Initial residual = 0.01294852731023758, Final residual = 0.001158091393599424, No Iterations 3
[INFO] TimeStep: 1654.793 [ms]
ExecutionTime = 101.74 s  ClockTime = 102 s

Time = 42

velocityDampingConstraint velocityDamping damped 0 (0%) of cells, with max limit 300
[INFO] MatrixAssemblyU: 529.876 [ms]
smoothSolver:  Solving for Ux, Initial residual = 0.01210715700884263, Final residual = 0.001202015384460187, No Iterations 12
smoothSolver:  Solving for Uy, Initial residual = 0.07124687619115844, Final residual = 0.006661856901680618, No Iterations 13
smoothSolver:  Solving for Uz, Initial residual = 0.07082825911569078, Final residual = 0.006050830531771747, No Iterations 13
[INFO] MomentumPredictor: 428.204 [ms]
[INFO] MatrixAssemblyPI: 82.203 [ms]
[INFO] MatrixAssemblyPII: 40.4 [ms]
[OGL LOG][Proc: 0]: global_index_init: 0.037 [ms]
[OGL LOG][Proc: 0]p_local_coeffs: call_update: 0 [ms]
[OGL LOG][Proc: 0]p_non_local_coeffs: call_update: 0 [ms]
[OGL LOG][Proc: 0]p: update_local_matrix_data: 10.839 [ms]
[OGL LOG][Proc: 0]p: update_non_local_matrix_data: 0.08400000000000001 [ms]
[OGL LOG][Proc: 0]p_matrix: call_update: 4.129 [ms]
[OGL LOG][Proc: 0]p_rhs: call_update: 1.313 [ms]
[OGL LOG][Preconditioner.H:121] Generate preconditioner BJ MaxBlockSize 1
[OGL LOG][Proc: 0]p: init_precond: 0.372 [ms]
[OGL LOG][StoppingCriterion.H:373] Creating stopping criterion with minIter 138 frequency 5
[OGL LOG][Proc: 0]p: generate_solver: 0.002 [ms]
[OGL LOG][Proc: 0]p: solve: 228.6 [ms]
[OGL LOG][Proc: 0]p: copy_x_back: 1.276 [ms]
[OGL LOG][lduLduBase.H:336] 
Statistics:
	Time per iteration: 989 [mu s]
	Time per residual norm calculation: 253.000000 [mu s]
	Time per iteration and DOF: 0.156807 [ns]
	Retrieve results bandwidth 2.988000 [GByte/s]
[OGL LOG][Proc: 0]p: solve_multi_gpu: 236.243 [ms]
BJhipGKOCG:  Solving for p, Initial residual = 0.05721904331676004, Final residual = 0.0005569494710901548, No Iterations 231
[INFO] SolveP: 249.536 [ms]
time step continuity errors : sum local = 0.005591650983976164, global = -0.0002570254544476327, cumulative = -0.001841731713550168
[INFO] postSolveP: 22.193 [ms]
smoothSolver:  Solving for nuTilda, Initial residual = 0.01845906491008575, Final residual = 0.001111507986452886, No Iterations 3
[INFO] TimeStep: 1669.46 [ms]
ExecutionTime = 103.83 s  ClockTime = 105 s

Time = 43

velocityDampingConstraint velocityDamping damped 0 (0%) of cells, with max limit 300
[INFO] MatrixAssemblyU: 527.474 [ms]
smoothSolver:  Solving for Ux, Initial residual = 0.01200677785727614, Final residual = 0.001029832246462638, No Iterations 13
smoothSolver:  Solving for Uy, Initial residual = 0.07198913395976422, Final residual = 0.006883478223698887, No Iterations 13
smoothSolver:  Solving for Uz, Initial residual = 0.07049647178010451, Final residual = 0.006134373310349927, No Iterations 13
[INFO] MomentumPredictor: 451.159 [ms]
[INFO] MatrixAssemblyPI: 82.357 [ms]
[INFO] MatrixAssemblyPII: 40.595 [ms]
[OGL LOG][Proc: 0]: global_index_init: 0.035 [ms]
[OGL LOG][Proc: 0]p_local_coeffs: call_update: 0 [ms]
[OGL LOG][Proc: 0]p_non_local_coeffs: call_update: 0 [ms]
[OGL LOG][Proc: 0]p: update_local_matrix_data: 10.992 [ms]
[OGL LOG][Proc: 0]p: update_non_local_matrix_data: 0.07000000000000001 [ms]
[OGL LOG][Proc: 0]p_matrix: call_update: 3.403 [ms]
[OGL LOG][Proc: 0]p_rhs: call_update: 2.759 [ms]
[OGL LOG][Preconditioner.H:121] Generate preconditioner BJ MaxBlockSize 1
[OGL LOG][Proc: 0]p: init_precond: 0.377 [ms]
[OGL LOG][StoppingCriterion.H:373] Creating stopping criterion with minIter 138 frequency 5
[OGL LOG][Proc: 0]p: generate_solver: 0.002 [ms]
[OGL LOG][Proc: 0]p: solve: 213.392 [ms]
[OGL LOG][Proc: 0]p: copy_x_back: 1.277 [ms]
[OGL LOG][lduLduBase.H:336] 
Statistics:
	Time per iteration: 944 [mu s]
	Time per residual norm calculation: 254.000000 [mu s]
	Time per iteration and DOF: 0.149672 [ns]
	Retrieve results bandwidth 2.985000 [GByte/s]
[OGL LOG][Proc: 0]p: solve_multi_gpu: 221.771 [ms]
BJhipGKOCG:  Solving for p, Initial residual = 0.05644695443340644, Final residual = 0.0005574267799053117, No Iterations 226
[INFO] SolveP: 234.959 [ms]
time step continuity errors : sum local = 0.005581255186542038, global = -0.0003763850342740969, cumulative = -0.002218116747824265
[INFO] postSolveP: 21.943 [ms]
smoothSolver:  Solving for nuTilda, Initial residual = 0.01236077996168648, Final residual = 0.001101839869056577, No Iterations 3
[INFO] TimeStep: 1674.112 [ms]
ExecutionTime = 105.92 s  ClockTime = 107 s

Time = 44

velocityDampingConstraint velocityDamping damped 0 (0%) of cells, with max limit 300
[INFO] MatrixAssemblyU: 526.0940000000001 [ms]
smoothSolver:  Solving for Ux, Initial residual = 0.0120226590954906, Final residual = 0.001038671973237197, No Iterations 13
smoothSolver:  Solving for Uy, Initial residual = 0.07246352206724577, Final residual = 0.007085409098888227, No Iterations 13
smoothSolver:  Solving for Uz, Initial residual = 0.06988121592916856, Final residual = 0.006198831483765864, No Iterations 13
[INFO] MomentumPredictor: 447.138 [ms]
[INFO] MatrixAssemblyPI: 82.208 [ms]
[INFO] MatrixAssemblyPII: 40.445 [ms]
[OGL LOG][Proc: 0]: global_index_init: 0.077 [ms]
[OGL LOG][Proc: 0]p_local_coeffs: call_update: 0 [ms]
[OGL LOG][Proc: 0]p_non_local_coeffs: call_update: 0 [ms]
[OGL LOG][Proc: 0]p: update_local_matrix_data: 10.925 [ms]
[OGL LOG][Proc: 0]p: update_non_local_matrix_data: 0.25 [ms]
[OGL LOG][Proc: 0]p_matrix: call_update: 3.679 [ms]
[OGL LOG][Proc: 0]p_rhs: call_update: 1.235 [ms]
[OGL LOG][Preconditioner.H:121] Generate preconditioner BJ MaxBlockSize 1
[OGL LOG][Proc: 0]p: init_precond: 0.362 [ms]
[OGL LOG][StoppingCriterion.H:373] Creating stopping criterion with minIter 135 frequency 5
[OGL LOG][Proc: 0]p: generate_solver: 0.002 [ms]
[OGL LOG][Proc: 0]p: solve: 230.59 [ms]
[OGL LOG][Proc: 0]p: copy_x_back: 1.274 [ms]
[OGL LOG][lduLduBase.H:336] 
Statistics:
	Time per iteration: 937 [mu s]
	Time per residual norm calculation: 251.000000 [mu s]
	Time per iteration and DOF: 0.148562 [ns]
	Retrieve results bandwidth 2.992000 [GByte/s]
[OGL LOG][Proc: 0]p: solve_multi_gpu: 237.708 [ms]
BJhipGKOCG:  Solving for p, Initial residual = 0.05563243599239114, Final residual = 0.0005443462798769674, No Iterations 246
[INFO] SolveP: 250.979 [ms]
time step continuity errors : sum local = 0.005411845490536929, global = -0.0005506904264238619, cumulative = -0.002768807174248127
[INFO] postSolveP: 22.125 [ms]
smoothSolver:  Solving for nuTilda, Initial residual = 0.0175174359487408, Final residual = 0.001059186285227135, No Iterations 3
[INFO] TimeStep: 1686.412 [ms]
ExecutionTime = 108.03 s  ClockTime = 109 s

Time = 45

velocityDampingConstraint velocityDamping damped 0 (0%) of cells, with max limit 300
[INFO] MatrixAssemblyU: 527.27 [ms]
smoothSolver:  Solving for Ux, Initial residual = 0.0118758294686036, Final residual = 0.00104751892008287, No Iterations 13
smoothSolver:  Solving for Uy, Initial residual = 0.07252212664351243, Final residual = 0.007210343350722802, No Iterations 13
smoothSolver:  Solving for Uz, Initial residual = 0.06905550505537759, Final residual = 0.006247905233329737, No Iterations 13
[INFO] MomentumPredictor: 446.731 [ms]
[INFO] MatrixAssemblyPI: 82.66 [ms]
[INFO] MatrixAssemblyPII: 40.579 [ms]
[OGL LOG][Proc: 0]: global_index_init: 0.169 [ms]
[OGL LOG][Proc: 0]p_local_coeffs: call_update: 0 [ms]
[OGL LOG][Proc: 0]p_non_local_coeffs: call_update: 0 [ms]
[OGL LOG][Proc: 0]p: update_local_matrix_data: 11.243 [ms]
[OGL LOG][Proc: 0]p: update_non_local_matrix_data: 0.08700000000000001 [ms]
[OGL LOG][Proc: 0]p_matrix: call_update: 4.097 [ms]
[OGL LOG][Proc: 0]p_rhs: call_update: 4.51 [ms]
[OGL LOG][Preconditioner.H:121] Generate preconditioner BJ MaxBlockSize 1
[OGL LOG][Proc: 0]p: init_precond: 0.446 [ms]
[OGL LOG][StoppingCriterion.H:373] Creating stopping criterion with minIter 147 frequency 5
[OGL LOG][Proc: 0]p: generate_solver: 0.002 [ms]
[OGL LOG][Proc: 0]p: solve: 234.51 [ms]
[OGL LOG][Proc: 0]p: copy_x_back: 1.277 [ms]
[OGL LOG][lduLduBase.H:336] 
Statistics:
	Time per iteration: 916 [mu s]
	Time per residual norm calculation: 255.000000 [mu s]
	Time per iteration and DOF: 0.145232 [ns]
	Retrieve results bandwidth 2.985000 [GByte/s]
[OGL LOG][Proc: 0]p: solve_multi_gpu: 245.39 [ms]
BJhipGKOCG:  Solving for p, Initial residual = 0.05510151070221198, Final residual = 0.0005384086063863103, No Iterations 256
[INFO] SolveP: 259.108 [ms]
time step continuity errors : sum local = 0.005293275367653205, global = -0.0007213200922456156, cumulative = -0.003490127266493743
[INFO] postSolveP: 22.005 [ms]
smoothSolver:  Solving for nuTilda, Initial residual = 0.01179714549814677, Final residual = 0.001047844963016613, No Iterations 3
[INFO] TimeStep: 1693.848 [ms]
ExecutionTime = 110.14 s  ClockTime = 111 s

Time = 46

velocityDampingConstraint velocityDamping damped 0 (0%) of cells, with max limit 300
[INFO] MatrixAssemblyU: 526.3680000000001 [ms]
smoothSolver:  Solving for Ux, Initial residual = 0.01173576939134282, Final residual = 0.001049770061436588, No Iterations 13
smoothSolver:  Solving for Uy, Initial residual = 0.07228219064682961, Final residual = 0.006192287018985564, No Iterations 14
smoothSolver:  Solving for Uz, Initial residual = 0.06777461481449711, Final residual = 0.006290518596690732, No Iterations 13
[INFO] MomentumPredictor: 456.345 [ms]
[INFO] MatrixAssemblyPI: 83.28700000000001 [ms]
[INFO] MatrixAssemblyPII: 40.446 [ms]
[OGL LOG][Proc: 0]: global_index_init: 0.137 [ms]
[OGL LOG][Proc: 0]p_local_coeffs: call_update: 0 [ms]
[OGL LOG][Proc: 0]p_non_local_coeffs: call_update: 0 [ms]
[OGL LOG][Proc: 0]p: update_local_matrix_data: 10.963 [ms]
[OGL LOG][Proc: 0]p: update_non_local_matrix_data: 0.08 [ms]
[OGL LOG][Proc: 0]p_matrix: call_update: 3.311 [ms]
[OGL LOG][Proc: 0]p_rhs: call_update: 2.416 [ms]
[OGL LOG][Preconditioner.H:121] Generate preconditioner BJ MaxBlockSize 1
[OGL LOG][Proc: 0]p: init_precond: 0.386 [ms]
[OGL LOG][StoppingCriterion.H:373] Creating stopping criterion with minIter 153 frequency 5
[OGL LOG][Proc: 0]p: generate_solver: 0.002 [ms]
[OGL LOG][Proc: 0]p: solve: 262.043 [ms]
[OGL LOG][Proc: 0]p: copy_x_back: 1.279 [ms]
[OGL LOG][lduLduBase.H:336] 
Statistics:
	Time per iteration: 900 [mu s]
	Time per residual norm calculation: 252.000000 [mu s]
	Time per iteration and DOF: 0.142696 [ns]
	Retrieve results bandwidth 2.981000 [GByte/s]
[OGL LOG][Proc: 0]p: solve_multi_gpu: 270.015 [ms]
BJhipGKOCG:  Solving for p, Initial residual = 0.05438540845404684, Final residual = 0.0005421591996994876, No Iterations 291
[INFO] SolveP: 283.119 [ms]
time step continuity errors : sum local = 0.00528227949339168, global = -0.0008336966197730557, cumulative = -0.004323823886266799
[INFO] postSolveP: 22.049 [ms]
smoothSolver:  Solving for nuTilda, Initial residual = 0.01663193149324418, Final residual = 0.001010158890466584, No Iterations 3
[INFO] TimeStep: 1726.853 [ms]
ExecutionTime = 112.29 s  ClockTime = 113 s

Time = 47

velocityDampingConstraint velocityDamping damped 0 (0%) of cells, with max limit 300
[INFO] MatrixAssemblyU: 526.071 [ms]
smoothSolver:  Solving for Ux, Initial residual = 0.01149639557695422, Final residual = 0.00105397225129706, No Iterations 13
smoothSolver:  Solving for Uy, Initial residual = 0.07178105994187518, Final residual = 0.006177741857547752, No Iterations 14
smoothSolver:  Solving for Uz, Initial residual = 0.06638300894585659, Final residual = 0.006321078406276143, No Iterations 13
[INFO] MomentumPredictor: 456.187 [ms]
[INFO] MatrixAssemblyPI: 83.27500000000001 [ms]
[INFO] MatrixAssemblyPII: 40.406 [ms]
[OGL LOG][Proc: 0]: global_index_init: 0.317 [ms]
[OGL LOG][Proc: 0]p_local_coeffs: call_update: 0 [ms]
[OGL LOG][Proc: 0]p_non_local_coeffs: call_update: 0 [ms]
[OGL LOG][Proc: 0]p: update_local_matrix_data: 11.12 [ms]
[OGL LOG][Proc: 0]p: update_non_local_matrix_data: 0.07100000000000001 [ms]
[OGL LOG][Proc: 0]p_matrix: call_update: 3.407 [ms]
[OGL LOG][Proc: 0]p_rhs: call_update: 2.263 [ms]
[OGL LOG][Preconditioner.H:121] Generate preconditioner BJ MaxBlockSize 1
[OGL LOG][Proc: 0]p: init_precond: 0.45 [ms]
[OGL LOG][StoppingCriterion.H:373] Creating stopping criterion with minIter 174 frequency 6
[OGL LOG][Proc: 0]p: generate_solver: 0.002 [ms]
[OGL LOG][Proc: 0]p: solve: 518.3100000000001 [ms]
[OGL LOG][Proc: 0]p: copy_x_back: 1.267 [ms]
[OGL LOG][lduLduBase.H:336] 
Statistics:
	Time per iteration: 862 [mu s]
	Time per residual norm calculation: 255.000000 [mu s]
	Time per iteration and DOF: 0.136671 [ns]
	Retrieve results bandwidth 3.009000 [GByte/s]
[OGL LOG][Proc: 0]p: solve_multi_gpu: 526.2860000000001 [ms]
BJhipGKOCG:  Solving for p, Initial residual = 0.05359292166806943, Final residual = 0.0005204628745510551, No Iterations 601
[INFO] SolveP: 539.817 [ms]
time step continuity errors : sum local = 0.005036280374944495, global = -0.000318486530986903, cumulative = -0.004642310417253701
[INFO] postSolveP: 22.014 [ms]
smoothSolver:  Solving for nuTilda, Initial residual = 0.01128082579687031, Final residual = 0.00100073508094731, No Iterations 3
[INFO] TimeStep: 1983.848 [ms]
ExecutionTime = 114.69 s  ClockTime = 115 s

Time = 48

velocityDampingConstraint velocityDamping damped 0 (0%) of cells, with max limit 300
[INFO] MatrixAssemblyU: 530.679 [ms]
smoothSolver:  Solving for Ux, Initial residual = 0.01162108798206893, Final residual = 0.001061555912202998, No Iterations 13
smoothSolver:  Solving for Uy, Initial residual = 0.07162278157595589, Final residual = 0.006162999564621414, No Iterations 14
smoothSolver:  Solving for Uz, Initial residual = 0.0654909358550842, Final residual = 0.006317567047207079, No Iterations 13
[INFO] MomentumPredictor: 447.142 [ms]
[INFO] MatrixAssemblyPI: 82.623 [ms]
[INFO] MatrixAssemblyPII: 40.795 [ms]
[OGL LOG][Proc: 0]: global_index_init: 0.037 [ms]
[OGL LOG][Proc: 0]p_local_coeffs: call_update: 0 [ms]
[OGL LOG][Proc: 0]p_non_local_coeffs: call_update: 0 [ms]
[OGL LOG][Proc: 0]p: update_local_matrix_data: 10.778 [ms]
[OGL LOG][Proc: 0]p: update_non_local_matrix_data: 0.073 [ms]
[OGL LOG][Proc: 0]p_matrix: call_update: 3.464 [ms]
[OGL LOG][Proc: 0]p_rhs: call_update: 2.072 [ms]
[OGL LOG][Preconditioner.H:121] Generate preconditioner BJ MaxBlockSize 1
[OGL LOG][Proc: 0]p: init_precond: 0.431 [ms]
[OGL LOG][StoppingCriterion.H:373] Creating stopping criterion with minIter 360 frequency 8
[OGL LOG][Proc: 0]p: generate_solver: 0.002 [ms]
[OGL LOG][Proc: 0]p: solve: 311.105 [ms]
[OGL LOG][Proc: 0]p: copy_x_back: 1.29 [ms]
[OGL LOG][lduLduBase.H:336] 
Statistics:
	Time per iteration: 861 [mu s]
	Time per residual norm calculation: 274.000000 [mu s]
	Time per iteration and DOF: 0.136512 [ns]
	Retrieve results bandwidth 2.955000 [GByte/s]
[OGL LOG][Proc: 0]p: solve_multi_gpu: 318.921 [ms]
BJhipGKOCG:  Solving for p, Initial residual = 0.05400876125790163, Final residual = 0.0003153634777653902, No Iterations 361
[INFO] SolveP: 331.785 [ms]
time step continuity errors : sum local = 0.002957807059648781, global = 0.0003697450676658843, cumulative = -0.004272565349587817
[INFO] postSolveP: 26.176 [ms]
smoothSolver:  Solving for nuTilda, Initial residual = 0.01585579249352608, Final residual = 0.0009696686476002818, No Iterations 3
[INFO] TimeStep: 1775.142 [ms]
ExecutionTime = 116.89 s  ClockTime = 118 s

Time = 49

velocityDampingConstraint velocityDamping damped 0 (0%) of cells, with max limit 300
[INFO] MatrixAssemblyU: 525.104 [ms]
smoothSolver:  Solving for Ux, Initial residual = 0.01147008406822665, Final residual = 0.001064425007997301, No Iterations 13
smoothSolver:  Solving for Uy, Initial residual = 0.07066297132281103, Final residual = 0.006139446151517474, No Iterations 14
smoothSolver:  Solving for Uz, Initial residual = 0.06430268148564704, Final residual = 0.006297458795324801, No Iterations 13
[INFO] MomentumPredictor: 446.018 [ms]
[INFO] MatrixAssemblyPI: 82.90300000000001 [ms]
[INFO] MatrixAssemblyPII: 40.35 [ms]
[OGL LOG][Proc: 0]: global_index_init: 0.388 [ms]
[OGL LOG][Proc: 0]p_local_coeffs: call_update: 0 [ms]
[OGL LOG][Proc: 0]p_non_local_coeffs: call_update: 0 [ms]
[OGL LOG][Proc: 0]p: update_local_matrix_data: 10.978 [ms]
[OGL LOG][Proc: 0]p: update_non_local_matrix_data: 0.07200000000000001 [ms]
[OGL LOG][Proc: 0]p_matrix: call_update: 6.691 [ms]
[OGL LOG][Proc: 0]p_rhs: call_update: 1.383 [ms]
[OGL LOG][Preconditioner.H:121] Generate preconditioner BJ MaxBlockSize 1
[OGL LOG][Proc: 0]p: init_precond: 0.359 [ms]
[OGL LOG][StoppingCriterion.H:373] Creating stopping criterion with minIter 216 frequency 6
[OGL LOG][Proc: 0]p: generate_solver: 0.002 [ms]
[OGL LOG][Proc: 0]p: solve: 238.618 [ms]
[OGL LOG][Proc: 0]p: copy_x_back: 1.274 [ms]
[OGL LOG][lduLduBase.H:336] 
Statistics:
	Time per iteration: 900 [mu s]
	Time per residual norm calculation: 256.000000 [mu s]
	Time per iteration and DOF: 0.142696 [ns]
	Retrieve results bandwidth 2.992000 [GByte/s]
[OGL LOG][Proc: 0]p: solve_multi_gpu: 248.879 [ms]
BJhipGKOCG:  Solving for p, Initial residual = 0.05342961422174752, Final residual = 0.0005300933042533088, No Iterations 265
[INFO] SolveP: 262.395 [ms]
time step continuity errors : sum local = 0.004936992796472046, global = 0.0007784280155546314, cumulative = -0.003494137334033185
[INFO] postSolveP: 22.563 [ms]
smoothSolver:  Solving for nuTilda, Initial residual = 0.01084965037372191, Final residual = 0.0009635788486382838, No Iterations 3
[INFO] TimeStep: 1694.84 [ms]
ExecutionTime = 119 s  ClockTime = 120 s

Time = 50

velocityDampingConstraint velocityDamping damped 0 (0%) of cells, with max limit 300
[INFO] MatrixAssemblyU: 525.426 [ms]
smoothSolver:  Solving for Ux, Initial residual = 0.01144359239006401, Final residual = 0.001064469457061954, No Iterations 13
smoothSolver:  Solving for Uy, Initial residual = 0.06957834747947803, Final residual = 0.006066180454362855, No Iterations 14
smoothSolver:  Solving for Uz, Initial residual = 0.06339872421144069, Final residual = 0.006271357953531956, No Iterations 13
[INFO] MomentumPredictor: 449.598 [ms]
[INFO] MatrixAssemblyPI: 82.44199999999999 [ms]
[INFO] MatrixAssemblyPII: 40.736 [ms]
[OGL LOG][Proc: 0]: global_index_init: 0.452 [ms]
[OGL LOG][Proc: 0]p_local_coeffs: call_update: 0 [ms]
[OGL LOG][Proc: 0]p_non_local_coeffs: call_update: 0 [ms]
[OGL LOG][Proc: 0]p: update_local_matrix_data: 11.047 [ms]
[OGL LOG][Proc: 0]p: update_non_local_matrix_data: 0.08700000000000001 [ms]
[OGL LOG][Proc: 0]p_matrix: call_update: 3.243 [ms]
[OGL LOG][Proc: 0]p_rhs: call_update: 2.05 [ms]
[OGL LOG][Preconditioner.H:121] Generate preconditioner BJ MaxBlockSize 1
[OGL LOG][Proc: 0]p: init_precond: 0.395 [ms]
[OGL LOG][StoppingCriterion.H:373] Creating stopping criterion with minIter 159 frequency 5
[OGL LOG][Proc: 0]p: generate_solver: 0.002 [ms]
[OGL LOG][Proc: 0]p: solve: 546.7280000000001 [ms]
[OGL LOG][Proc: 0]p: copy_x_back: 1.277 [ms]
[OGL LOG][lduLduBase.H:336] 
Statistics:
	Time per iteration: 880 [mu s]
	Time per residual norm calculation: 255.000000 [mu s]
	Time per iteration and DOF: 0.139525 [ns]
	Retrieve results bandwidth 2.985000 [GByte/s]
[OGL LOG][Proc: 0]p: solve_multi_gpu: 554.2430000000001 [ms]
BJhipGKOCG:  Solving for p, Initial residual = 0.05311737957441763, Final residual = 0.0005192266093501954, No Iterations 621
[INFO] SolveP: 568.0069999999999 [ms]
time step continuity errors : sum local = 0.004818394063293732, global = -9.560411427590001e-05, cumulative = -0.003589741448309085
[INFO] postSolveP: 22.525 [ms]
smoothSolver:  Solving for nuTilda, Initial residual = 0.01517018533385417, Final residual = 0.0009376631005400637, No Iterations 3
[INFO] TimeStep: 2005.126 [ms]
ExecutionTime = 121.42 s  ClockTime = 122 s

End

Finalising parallel run
