/*---------------------------------------------------------------------------*\
| =========                 |                                                 |
| \\      /  F ield         | OpenFOAM: The Open Source CFD Toolbox           |
|  \\    /   O peration     | Version:  2312                                  |
|   \\  /    A nd           | Website:  www.openfoam.com                      |
|    \\/     M anipulation  |                                                 |
\*---------------------------------------------------------------------------*/
Build  : a46b310f-20240104 OPENFOAM=2312 version=v2312
Arch   : "LSB;label=32;scalar=64"
Exec   : icoFoam -parallel -case /hppfs/scratch/0B/di35yan/lidDriven3D/workspace/6e0281f12fff7d99b831ec291876e4e9/case
Date   : Feb 18 2024
Time   : 22:49:54
Host   : i20r02c02s02
PID    : 119575
I/O    : uncollated
Case   : /hppfs/scratch/0B/di35yan/lidDriven3D/workspace/6e0281f12fff7d99b831ec291876e4e9/case
nProcs : 80
Hosts  :
(
    (i20r02c02s02 8)
    (i20r02c02s06 8)
    (i20r02c02s10 8)
    (i20r02c03s02 8)
    (i20r02c03s04 8)
    (i20r02c03s06 8)
    (i20r02c03s08 8)
    (i20r02c03s10 8)
    (i20r02c04s02 8)
    (i20r02c04s04 8)
)
Pstream initialized with:
    floatTransfer      : false
    nProcsSimpleSum    : 0
    nonBlockingExchange: 0 (tuning: 0)
    exchange algorithm : 0
    commsType          : nonBlocking
    polling iterations : 0
trapFpe: Floating point exception trapping enabled (FOAM_SIGFPE).
fileModificationChecking : Monitoring run-time modified files using timeStampMaster (fileModificationSkew 5, maxFileModificationPolls 20)
allowSystemOperations : Allowing user-supplied system call operations

// * * * * * * * * * * * * * * * * * * * * * * * * * * * * * * * * * * * * * //
Create time

--> FOAM Warning : 
    From void* Foam::dlLibraryTable::openLibrary(const Foam::fileName&, bool)
    in file db/dynamicLibrary/dlLibraryTable/dlLibraryTable.C at line 188
    Could not load "libpetscFoam.so"
libpetscFoam.so: cannot open shared object file: No such file or directory
Create mesh for time = 0


PISO: Operating solver in PISO mode

Reading transportProperties

Reading field p

Reading field U

Reading/calculating face flux field phi


Starting time loop

Time = 0.000125

Courant Number mean: 8.02505e-18 max: 4.85723e-14
[INFO] MatrixAssemblyU: 96.679 [ms]
DILUPBiCGStab:  Solving for Ux, Initial residual = 1, Final residual = 0.0215184, No Iterations 5
DILUPBiCGStab:  Solving for Uy:  solution singularity
DILUPBiCGStab:  Solving for Uz:  solution singularity
[INFO] MomentumPredictor: 541.892 [ms]
[INFO] MatrixAssemblyPI: 82.577 [ms]
[INFO] AdjustPhi: 16.477 [ms]
[INFO] ConstrainPressure: 0.004 [ms]
[INFO] MatrixAssemblyPII: 24.477 [ms]
[OGL LOG][lduLduBase.H:119] Initialising OGL
	OGL commit:  34fc915+
	Branch: fix/cyclic_interfaces 
	Build type: Debug
	Ginkgo version: 1.8.0 ( develop)
	Ginkgo commit: fc86d48b78cebd2b2c5833a2dcf0fe40f615cf19
	MPI is GPU aware: 1
	Forces host buffer based communication: 0
	CPU ranks per GPU: 1
	Matrix format: Ell
	End OGL_INFO
[OGL LOG][Proc: 0]: global_index_init: 23.582 [ms]
[OGL LOG][Proc: 0]p_local_cols: call_init: 0.133 [ms]
[OGL LOG][Proc: 0]p_local_rows: call_init: 0.051 [ms]
[OGL LOG][Proc: 0]p_local_ldu_map: call_init: 0.005 [ms]
[OGL LOG][Proc: 0]p_local_coeffs: call_init: 1.976 [ms]
[OGL LOG][Proc: 0]p_non_local_cols: call_init: 0.03 [ms]
[OGL LOG][Proc: 0]p_non_local_rows: call_init: 0.02 [ms]
[OGL LOG][Proc: 0]p_non_local_ldu_map: call_init: 0.016 [ms]
[OGL LOG][Proc: 0]p_non_local_coeffs: call_init: 0.006 [ms]
[OGL LOG][Proc: 0]p: init_local_sparsity_pattern: 10619 [ms]
[OGL LOG][Proc: 0]p: init_non_local_sparsity_pattern: 50.732 [ms]
[OGL LOG][Proc: 0]p: update_local_matrix_data: 3446.03 [ms]
[OGL LOG][Proc: 0]p: update_non_local_matrix_data: 0.599 [ms]
[OGL LOG][Proc: 0]device_partition: call_init: 4.748 [ms]
[OGL LOG][Proc: 0]p_matrix: call_init: 188.545 [ms]
[OGL LOG][Proc: 0]p_rhs: call_init: 6.472 [ms]
[OGL LOG][Proc: 0]p_solution: call_init: 2.308 [ms]
[OGL LOG][Proc: 0]p: init_precond: 0.173 [ms]
[OGL LOG][StoppingCriterion.H:239] Creating stopping criterion with minIter 0 frequency 1
[OGL LOG][Proc: 0]p: generate_solver: 2.994 [ms]
[OGL LOG][Proc: 0]p: solve: 4992.77 [ms]
[OGL LOG][Proc: 0]p: copy_x_back: 1.292 [ms]
[OGL LOG][lduLduBase.H:330] 
Statistics:
	Time per iteration: 1535 [mu s]
	Time per residual norm calculation: 48993.000000 [mu s]
	Time per iteration and DOF: 0.023984 [ns]
	Retrieve results bandwidth 4.953000 [GByte/s]
[OGL LOG][Proc: 0]p: solve_multi_gpu: 5923.69 [ms]
nonedpcppGKOCG:  Solving for p, Initial residual = 1, Final residual = 9.90332e-05, No Iterations 3252
[INFO] SolveP: 20078.2 [ms]
time step continuity errors : sum local = 2.51223e-09, global = -1.14805e-21, cumulative = -1.14805e-21
[INFO] ContinuityError: 16.625 [ms]
[INFO] CorrectBoundary: 2.01 [ms]
[INFO] PISOStep: 20257.1 [ms]
[INFO] MatrixAssemblyPI: 81.956 [ms]
[INFO] AdjustPhi: 12.562 [ms]
[INFO] ConstrainPressure: 0.002 [ms]
[INFO] MatrixAssemblyPII: 26.191 [ms]
[OGL LOG][Proc: 0]: global_index_init: 1.458 [ms]
[OGL LOG][Proc: 0]p_local_coeffs: call_update: 0 [ms]
[OGL LOG][Proc: 0]p_non_local_coeffs: call_update: 0 [ms]
[OGL LOG][Proc: 0]p: update_local_matrix_data: 9.721 [ms]
[OGL LOG][Proc: 0]p: update_non_local_matrix_data: 0.462 [ms]
[OGL LOG][Proc: 0]p: regenerate_distributed_matrix: 61.37 [ms]
[OGL LOG][Proc: 0]p_matrix: call_update: 62.324 [ms]
[OGL LOG][Proc: 0]p_rhs: call_update: 56.188 [ms]
[OGL LOG][Proc: 0]p: init_precond: 0.057 [ms]
[OGL LOG][StoppingCriterion.H:239] Creating stopping criterion with minIter 0 frequency 1
[OGL LOG][Proc: 0]p: generate_solver: 0.022 [ms]
[OGL LOG][Proc: 0]p: solve: 4331.72 [ms]
[OGL LOG][Proc: 0]p: copy_x_back: 1.417 [ms]
[OGL LOG][lduLduBase.H:330] 
Statistics:
	Time per iteration: 1337 [mu s]
	Time per residual norm calculation: 160.000000 [mu s]
	Time per iteration and DOF: 0.020891 [ns]
	Retrieve results bandwidth 4.516000 [GByte/s]
[OGL LOG][Proc: 0]p: solve_multi_gpu: 4456.72 [ms]
nonedpcppGKOCG:  Solving for p, Initial residual = 0.822079, Final residual = 9.9039e-05, No Iterations 3238
[INFO] SolveP: 4470.86 [ms]
time step continuity errors : sum local = 3.02697e-09, global = 5.12672e-22, cumulative = -6.35378e-22
[INFO] ContinuityError: 14.852 [ms]
[INFO] CorrectBoundary: 4.65 [ms]
[INFO] PISOStep: 4639.61 [ms]
[INFO] TimeStep: 25554.3 [ms]
ExecutionTime = 33.34 s  ClockTime = 36 s

Time = 0.00025

Courant Number mean: 0.0108529 max: 0.437705
[INFO] MatrixAssemblyU: 66.733 [ms]
DILUPBiCGStab:  Solving for Ux, Initial residual = 0.108168, Final residual = 0.0139015, No Iterations 5
DILUPBiCGStab:  Solving for Uy, Initial residual = 0.484635, Final residual = 0.0562599, No Iterations 5
DILUPBiCGStab:  Solving for Uz, Initial residual = 0.990101, Final residual = 0.125769, No Iterations 5
[INFO] MomentumPredictor: 754.527 [ms]
[INFO] MatrixAssemblyPI: 78.525 [ms]
[INFO] AdjustPhi: 14.045 [ms]
[INFO] ConstrainPressure: 0.002 [ms]
[INFO] MatrixAssemblyPII: 23.659 [ms]
[OGL LOG][Proc: 0]: global_index_init: 0.185 [ms]
[OGL LOG][Proc: 0]p_local_coeffs: call_update: 0 [ms]
[OGL LOG][Proc: 0]p_non_local_coeffs: call_update: 0 [ms]
[OGL LOG][Proc: 0]p: update_local_matrix_data: 9.124 [ms]
[OGL LOG][Proc: 0]p: update_non_local_matrix_data: 0.446 [ms]
[OGL LOG][Proc: 0]p: regenerate_distributed_matrix: 59.075 [ms]
[OGL LOG][Proc: 0]p_matrix: call_update: 59.508 [ms]
[OGL LOG][Proc: 0]p_rhs: call_update: 1.544 [ms]
[OGL LOG][Proc: 0]p: init_precond: 0.042 [ms]
[OGL LOG][StoppingCriterion.H:239] Creating stopping criterion with minIter 1942 frequency 12
[OGL LOG][Proc: 0]p: generate_solver: 0.023 [ms]
[OGL LOG][Proc: 0]p: solve: 3744.13 [ms]
[OGL LOG][Proc: 0]p: copy_x_back: 1.358 [ms]
[OGL LOG][lduLduBase.H:330] 
Statistics:
	Time per iteration: 1172 [mu s]
	Time per residual norm calculation: 173.000000 [mu s]
	Time per iteration and DOF: 0.018312 [ns]
	Retrieve results bandwidth 4.712000 [GByte/s]
[OGL LOG][Proc: 0]p: solve_multi_gpu: 3809.89 [ms]
nonedpcppGKOCG:  Solving for p, Initial residual = 0.913401, Final residual = 8.54502e-05, No Iterations 3193
[INFO] SolveP: 3822.24 [ms]
time step continuity errors : sum local = 6.49541e-09, global = 2.5588e-22, cumulative = -3.79498e-22
[INFO] ContinuityError: 12.752 [ms]
[INFO] CorrectBoundary: 3.276 [ms]
[INFO] PISOStep: 3984.56 [ms]
[INFO] MatrixAssemblyPI: 77.255 [ms]
[INFO] AdjustPhi: 14.912 [ms]
[INFO] ConstrainPressure: 0.002 [ms]
[INFO] MatrixAssemblyPII: 24.414 [ms]
[OGL LOG][Proc: 0]: global_index_init: 0.127 [ms]
[OGL LOG][Proc: 0]p_local_coeffs: call_update: 0 [ms]
[OGL LOG][Proc: 0]p_non_local_coeffs: call_update: 0 [ms]
[OGL LOG][Proc: 0]p: update_local_matrix_data: 9.11 [ms]
[OGL LOG][Proc: 0]p: update_non_local_matrix_data: 0.444 [ms]
[OGL LOG][Proc: 0]p: regenerate_distributed_matrix: 58.02 [ms]
[OGL LOG][Proc: 0]p_matrix: call_update: 59.177 [ms]
[OGL LOG][Proc: 0]p_rhs: call_update: 0.803 [ms]
[OGL LOG][Proc: 0]p: init_precond: 0.045 [ms]
[OGL LOG][StoppingCriterion.H:239] Creating stopping criterion with minIter 1915 frequency 14
[OGL LOG][Proc: 0]p: generate_solver: 0.023 [ms]
[OGL LOG][Proc: 0]p: solve: 3726.19 [ms]
[OGL LOG][Proc: 0]p: copy_x_back: 2.248 [ms]
[OGL LOG][lduLduBase.H:330] 
Statistics:
	Time per iteration: 1166 [mu s]
	Time per residual norm calculation: 192.000000 [mu s]
	Time per iteration and DOF: 0.018219 [ns]
	Retrieve results bandwidth 2.846000 [GByte/s]
[OGL LOG][Proc: 0]p: solve_multi_gpu: 3793.59 [ms]
nonedpcppGKOCG:  Solving for p, Initial residual = 0.863063, Final residual = 7.90053e-05, No Iterations 3193
[INFO] SolveP: 3805.84 [ms]
time step continuity errors : sum local = 6.12664e-09, global = -2.09542e-23, cumulative = -4.00452e-22
[INFO] ContinuityError: 11.909 [ms]
[INFO] CorrectBoundary: 0.41 [ms]
[INFO] PISOStep: 3969.91 [ms]
[INFO] TimeStep: 8788.71 [ms]
ExecutionTime = 42.13 s  ClockTime = 45 s

Time = 0.000375

Courant Number mean: 0.0169288 max: 0.5119
[INFO] MatrixAssemblyU: 68.744 [ms]
DILUPBiCGStab:  Solving for Ux, Initial residual = 0.0536509, Final residual = 0.00565737, No Iterations 5
DILUPBiCGStab:  Solving for Uy, Initial residual = 0.262003, Final residual = 0.0278784, No Iterations 5
DILUPBiCGStab:  Solving for Uz, Initial residual = 0.868153, Final residual = 0.0902371, No Iterations 5
[INFO] MomentumPredictor: 758.494 [ms]
[INFO] MatrixAssemblyPI: 86.829 [ms]
[INFO] AdjustPhi: 5.273 [ms]
[INFO] ConstrainPressure: 0.001 [ms]
[INFO] MatrixAssemblyPII: 25.855 [ms]
[OGL LOG][Proc: 0]: global_index_init: 0.084 [ms]
[OGL LOG][Proc: 0]p_local_coeffs: call_update: 0 [ms]
[OGL LOG][Proc: 0]p_non_local_coeffs: call_update: 0 [ms]
[OGL LOG][Proc: 0]p: update_local_matrix_data: 9.059 [ms]
[OGL LOG][Proc: 0]p: update_non_local_matrix_data: 0.423 [ms]
[OGL LOG][Proc: 0]p: regenerate_distributed_matrix: 57.896 [ms]
[OGL LOG][Proc: 0]p_matrix: call_update: 58.269 [ms]
[OGL LOG][Proc: 0]p_rhs: call_update: 1.371 [ms]
[OGL LOG][Proc: 0]p: init_precond: 0.041 [ms]
[OGL LOG][StoppingCriterion.H:239] Creating stopping criterion with minIter 1915 frequency 14
[OGL LOG][Proc: 0]p: generate_solver: 0.022 [ms]
[OGL LOG][Proc: 0]p: solve: 2225.49 [ms]
[OGL LOG][Proc: 0]p: copy_x_back: 1.367 [ms]
[OGL LOG][lduLduBase.H:330] 
Statistics:
	Time per iteration: 1159 [mu s]
	Time per residual norm calculation: 204.000000 [mu s]
	Time per iteration and DOF: 0.018109 [ns]
	Retrieve results bandwidth 4.681000 [GByte/s]
[OGL LOG][Proc: 0]p: solve_multi_gpu: 2290.14 [ms]
nonedpcppGKOCG:  Solving for p, Initial residual = 0.942942, Final residual = 3.46274e-05, No Iterations 1919
[INFO] SolveP: 2302.19 [ms]
time step continuity errors : sum local = 3.39971e-09, global = 7.30982e-22, cumulative = 3.3053e-22
[INFO] ContinuityError: 12.16 [ms]
[INFO] CorrectBoundary: 3.235 [ms]
[INFO] PISOStep: 2462.72 [ms]
[INFO] MatrixAssemblyPI: 77.657 [ms]
[INFO] AdjustPhi: 14.307 [ms]
[INFO] ConstrainPressure: 0.002 [ms]
[INFO] MatrixAssemblyPII: 24.655 [ms]
[OGL LOG][Proc: 0]: global_index_init: 0.151 [ms]
[OGL LOG][Proc: 0]p_local_coeffs: call_update: 0 [ms]
[OGL LOG][Proc: 0]p_non_local_coeffs: call_update: 0 [ms]
[OGL LOG][Proc: 0]p: update_local_matrix_data: 8.888 [ms]
[OGL LOG][Proc: 0]p: update_non_local_matrix_data: 0.468 [ms]
[OGL LOG][Proc: 0]p: regenerate_distributed_matrix: 57.819 [ms]
[OGL LOG][Proc: 0]p_matrix: call_update: 58.211 [ms]
[OGL LOG][Proc: 0]p_rhs: call_update: 2.189 [ms]
[OGL LOG][Proc: 0]p: init_precond: 0.041 [ms]
[OGL LOG][StoppingCriterion.H:239] Creating stopping criterion with minIter 1151 frequency 12
[OGL LOG][Proc: 0]p: generate_solver: 0.023 [ms]
[OGL LOG][Proc: 0]p: solve: 1818.63 [ms]
[OGL LOG][Proc: 0]p: copy_x_back: 1.332 [ms]
[OGL LOG][lduLduBase.H:330] 
Statistics:
	Time per iteration: 1183 [mu s]
	Time per residual norm calculation: 194.000000 [mu s]
	Time per iteration and DOF: 0.018484 [ns]
	Retrieve results bandwidth 4.804000 [GByte/s]
[OGL LOG][Proc: 0]p: solve_multi_gpu: 1887.39 [ms]
nonedpcppGKOCG:  Solving for p, Initial residual = 0.909099, Final residual = 9.32296e-05, No Iterations 1537
[INFO] SolveP: 1899.61 [ms]
time step continuity errors : sum local = 8.56497e-09, global = 3.39285e-22, cumulative = 6.69814e-22
[INFO] ContinuityError: 12.728 [ms]
[INFO] CorrectBoundary: 0.38 [ms]
[INFO] PISOStep: 2063.09 [ms]
[INFO] TimeStep: 5365.42 [ms]
ExecutionTime = 47.5 s  ClockTime = 51 s

Time = 0.0005

Courant Number mean: 0.0205329 max: 0.477542
[INFO] MatrixAssemblyU: 68.962 [ms]
DILUPBiCGStab:  Solving for Ux, Initial residual = 0.0416561, Final residual = 0.00523292, No Iterations 5
DILUPBiCGStab:  Solving for Uy, Initial residual = 0.213994, Final residual = 0.0253187, No Iterations 5
DILUPBiCGStab:  Solving for Uz, Initial residual = 0.782376, Final residual = 0.0672951, No Iterations 5
[INFO] MomentumPredictor: 756.267 [ms]
[INFO] MatrixAssemblyPI: 78.562 [ms]
[INFO] AdjustPhi: 14.932 [ms]
[INFO] ConstrainPressure: 0.002 [ms]
[INFO] MatrixAssemblyPII: 23.911 [ms]
[OGL LOG][Proc: 0]: global_index_init: 0.153 [ms]
[OGL LOG][Proc: 0]p_local_coeffs: call_update: 0 [ms]
[OGL LOG][Proc: 0]p_non_local_coeffs: call_update: 0 [ms]
[OGL LOG][Proc: 0]p: update_local_matrix_data: 9.19 [ms]
[OGL LOG][Proc: 0]p: update_non_local_matrix_data: 0.419 [ms]
[OGL LOG][Proc: 0]p: regenerate_distributed_matrix: 56.955 [ms]
[OGL LOG][Proc: 0]p_matrix: call_update: 58.063 [ms]
[OGL LOG][Proc: 0]p_rhs: call_update: 0.973 [ms]
[OGL LOG][Proc: 0]p: init_precond: 0.043 [ms]
[OGL LOG][StoppingCriterion.H:239] Creating stopping criterion with minIter 922 frequency 10
[OGL LOG][Proc: 0]p: generate_solver: 0.022 [ms]
[OGL LOG][Proc: 0]p: solve: 1783.39 [ms]
[OGL LOG][Proc: 0]p: copy_x_back: 1.373 [ms]
[OGL LOG][lduLduBase.H:330] 
Statistics:
	Time per iteration: 1180 [mu s]
	Time per residual norm calculation: 175.000000 [mu s]
	Time per iteration and DOF: 0.018437 [ns]
	Retrieve results bandwidth 4.661000 [GByte/s]
[OGL LOG][Proc: 0]p: solve_multi_gpu: 1847.2 [ms]
nonedpcppGKOCG:  Solving for p, Initial residual = 0.940406, Final residual = 9.82405e-05, No Iterations 1511
[INFO] SolveP: 1859.4 [ms]
time step continuity errors : sum local = 1.15675e-08, global = 1.10535e-21, cumulative = 1.77516e-21
[INFO] ContinuityError: 12.8 [ms]
[INFO] CorrectBoundary: 0.568 [ms]
[INFO] PISOStep: 2019.54 [ms]
[INFO] MatrixAssemblyPI: 78.91 [ms]
[INFO] AdjustPhi: 15.733 [ms]
[INFO] ConstrainPressure: 0.002 [ms]
[INFO] MatrixAssemblyPII: 24.568 [ms]
[OGL LOG][Proc: 0]: global_index_init: 0.138 [ms]
[OGL LOG][Proc: 0]p_local_coeffs: call_update: 0 [ms]
[OGL LOG][Proc: 0]p_non_local_coeffs: call_update: 0 [ms]
[OGL LOG][Proc: 0]p: update_local_matrix_data: 9.275 [ms]
[OGL LOG][Proc: 0]p: update_non_local_matrix_data: 0.444 [ms]
[OGL LOG][Proc: 0]p: regenerate_distributed_matrix: 58.983 [ms]
[OGL LOG][Proc: 0]p_matrix: call_update: 59.377 [ms]
[OGL LOG][Proc: 0]p_rhs: call_update: 2.102 [ms]
[OGL LOG][Proc: 0]p: init_precond: 0.042 [ms]
[OGL LOG][StoppingCriterion.H:239] Creating stopping criterion with minIter 906 frequency 10
[OGL LOG][Proc: 0]p: generate_solver: 0.022 [ms]
[OGL LOG][Proc: 0]p: solve: 1790.24 [ms]
[OGL LOG][Proc: 0]p: copy_x_back: 1.415 [ms]
[OGL LOG][lduLduBase.H:330] 
Statistics:
	Time per iteration: 1184 [mu s]
	Time per residual norm calculation: 168.000000 [mu s]
	Time per iteration and DOF: 0.018500 [ns]
	Retrieve results bandwidth 4.522000 [GByte/s]
[OGL LOG][Proc: 0]p: solve_multi_gpu: 1858.16 [ms]
nonedpcppGKOCG:  Solving for p, Initial residual = 0.881681, Final residual = 8.9891e-05, No Iterations 1511
[INFO] SolveP: 1871.53 [ms]
time step continuity errors : sum local = 1.0496e-08, global = 1.27677e-22, cumulative = 1.90284e-21
[INFO] ContinuityError: 12.292 [ms]
[INFO] CorrectBoundary: 0.473 [ms]
[INFO] PISOStep: 2032.85 [ms]
[INFO] TimeStep: 4889.32 [ms]
ExecutionTime = 52.38 s  ClockTime = 55 s

Time = 0.000625

Courant Number mean: 0.0235955 max: 0.55658
[INFO] MatrixAssemblyU: 67.471 [ms]
DILUPBiCGStab:  Solving for Ux, Initial residual = 0.0376677, Final residual = 0.0047609, No Iterations 5
DILUPBiCGStab:  Solving for Uy, Initial residual = 0.185326, Final residual = 0.0208029, No Iterations 5
DILUPBiCGStab:  Solving for Uz, Initial residual = 0.753504, Final residual = 0.0572218, No Iterations 5
[INFO] MomentumPredictor: 753.54 [ms]
[INFO] MatrixAssemblyPI: 79.134 [ms]
[INFO] AdjustPhi: 14.976 [ms]
[INFO] ConstrainPressure: 0.002 [ms]
[INFO] MatrixAssemblyPII: 23.945 [ms]
[OGL LOG][Proc: 0]: global_index_init: 0.095 [ms]
[OGL LOG][Proc: 0]p_local_coeffs: call_update: 0 [ms]
[OGL LOG][Proc: 0]p_non_local_coeffs: call_update: 0 [ms]
[OGL LOG][Proc: 0]p: update_local_matrix_data: 9.156 [ms]
[OGL LOG][Proc: 0]p: update_non_local_matrix_data: 0.453 [ms]
[OGL LOG][Proc: 0]p: regenerate_distributed_matrix: 55.326 [ms]
[OGL LOG][Proc: 0]p_matrix: call_update: 55.682 [ms]
[OGL LOG][Proc: 0]p_rhs: call_update: 1.478 [ms]
[OGL LOG][Proc: 0]p: init_precond: 0.04 [ms]
[OGL LOG][StoppingCriterion.H:239] Creating stopping criterion with minIter 906 frequency 9
[OGL LOG][Proc: 0]p: generate_solver: 0.022 [ms]
[OGL LOG][Proc: 0]p: solve: 3784.73 [ms]
[OGL LOG][Proc: 0]p: copy_x_back: 1.421 [ms]
[OGL LOG][lduLduBase.H:330] 
Statistics:
	Time per iteration: 1190 [mu s]
	Time per residual norm calculation: 178.000000 [mu s]
	Time per iteration and DOF: 0.018594 [ns]
	Retrieve results bandwidth 4.503000 [GByte/s]
[OGL LOG][Proc: 0]p: solve_multi_gpu: 3846.08 [ms]
nonedpcppGKOCG:  Solving for p, Initial residual = 0.955338, Final residual = 8.7614e-05, No Iterations 3178
[INFO] SolveP: 3859.33 [ms]
time step continuity errors : sum local = 1.12348e-08, global = 1.4824e-22, cumulative = 2.05108e-21
[INFO] ContinuityError: 13.224 [ms]
[INFO] CorrectBoundary: 3.796 [ms]
[INFO] PISOStep: 4022.78 [ms]
[INFO] MatrixAssemblyPI: 76.545 [ms]
[INFO] AdjustPhi: 15.119 [ms]
[INFO] ConstrainPressure: 0.002 [ms]
[INFO] MatrixAssemblyPII: 24.672 [ms]
[OGL LOG][Proc: 0]: global_index_init: 0.104 [ms]
[OGL LOG][Proc: 0]p_local_coeffs: call_update: 0 [ms]
[OGL LOG][Proc: 0]p_non_local_coeffs: call_update: 0 [ms]
[OGL LOG][Proc: 0]p: update_local_matrix_data: 9.109 [ms]
[OGL LOG][Proc: 0]p: update_non_local_matrix_data: 0.445 [ms]
[OGL LOG][Proc: 0]p: regenerate_distributed_matrix: 60.647 [ms]
[OGL LOG][Proc: 0]p_matrix: call_update: 61.013 [ms]
[OGL LOG][Proc: 0]p_rhs: call_update: 1.615 [ms]
[OGL LOG][Proc: 0]p: init_precond: 0.046 [ms]
[OGL LOG][StoppingCriterion.H:239] Creating stopping criterion with minIter 1906 frequency 14
[OGL LOG][Proc: 0]p: generate_solver: 0.022 [ms]
[OGL LOG][Proc: 0]p: solve: 3723.4 [ms]
[OGL LOG][Proc: 0]p: copy_x_back: 1.403 [ms]
[OGL LOG][lduLduBase.H:330] 
Statistics:
	Time per iteration: 1171 [mu s]
	Time per residual norm calculation: 177.000000 [mu s]
	Time per iteration and DOF: 0.018297 [ns]
	Retrieve results bandwidth 4.561000 [GByte/s]
[OGL LOG][Proc: 0]p: solve_multi_gpu: 3791.94 [ms]
nonedpcppGKOCG:  Solving for p, Initial residual = 0.915147, Final residual = 8.40064e-05, No Iterations 3179
[INFO] SolveP: 3804.31 [ms]
time step continuity errors : sum local = 1.07055e-08, global = 5.1123e-22, cumulative = 2.56231e-21
[INFO] ContinuityError: 13.446 [ms]
[INFO] CorrectBoundary: 0.351 [ms]
[INFO] PISOStep: 3963.65 [ms]
[INFO] TimeStep: 8823.88 [ms]
ExecutionTime = 61.2 s  ClockTime = 64 s

Time = 0.00075

Courant Number mean: 0.0259263 max: 0.483331
[INFO] MatrixAssemblyU: 67.441 [ms]
DILUPBiCGStab:  Solving for Ux, Initial residual = 0.0354648, Final residual = 0.00449911, No Iterations 5
DILUPBiCGStab:  Solving for Uy, Initial residual = 0.171923, Final residual = 0.017836, No Iterations 5
DILUPBiCGStab:  Solving for Uz, Initial residual = 0.696752, Final residual = 0.0471006, No Iterations 5
[INFO] MomentumPredictor: 742.775 [ms]
[INFO] MatrixAssemblyPI: 78.186 [ms]
[INFO] AdjustPhi: 14.5 [ms]
[INFO] ConstrainPressure: 0.002 [ms]
[INFO] MatrixAssemblyPII: 23.919 [ms]
[OGL LOG][Proc: 0]: global_index_init: 0.153 [ms]
[OGL LOG][Proc: 0]p_local_coeffs: call_update: 0 [ms]
[OGL LOG][Proc: 0]p_non_local_coeffs: call_update: 0 [ms]
[OGL LOG][Proc: 0]p: update_local_matrix_data: 8.987 [ms]
[OGL LOG][Proc: 0]p: update_non_local_matrix_data: 0.469 [ms]
[OGL LOG][Proc: 0]p: regenerate_distributed_matrix: 58.376 [ms]
[OGL LOG][Proc: 0]p_matrix: call_update: 58.765 [ms]
[OGL LOG][Proc: 0]p_rhs: call_update: 1.523 [ms]
[OGL LOG][Proc: 0]p: init_precond: 0.04 [ms]
[OGL LOG][StoppingCriterion.H:239] Creating stopping criterion with minIter 1907 frequency 14
[OGL LOG][Proc: 0]p: generate_solver: 0.021 [ms]
[OGL LOG][Proc: 0]p: solve: 3646.63 [ms]
[OGL LOG][Proc: 0]p: copy_x_back: 1.425 [ms]
[OGL LOG][lduLduBase.H:330] 
Statistics:
	Time per iteration: 1178 [mu s]
	Time per residual norm calculation: 184.000000 [mu s]
	Time per iteration and DOF: 0.018406 [ns]
	Retrieve results bandwidth 4.491000 [GByte/s]
[OGL LOG][Proc: 0]p: solve_multi_gpu: 3712.32 [ms]
nonedpcppGKOCG:  Solving for p, Initial residual = 0.952624, Final residual = 9.42651e-05, No Iterations 3095
[INFO] SolveP: 3724.32 [ms]
time step continuity errors : sum local = 1.40207e-08, global = -6.68207e-24, cumulative = 2.55562e-21
[INFO] ContinuityError: 13.939 [ms]
[INFO] CorrectBoundary: 3.198 [ms]
[INFO] PISOStep: 3885.84 [ms]
[INFO] MatrixAssemblyPI: 77.12 [ms]
[INFO] AdjustPhi: 15.797 [ms]
[INFO] ConstrainPressure: 0.002 [ms]
[INFO] MatrixAssemblyPII: 24.634 [ms]
[OGL LOG][Proc: 0]: global_index_init: 0.474 [ms]
[OGL LOG][Proc: 0]p_local_coeffs: call_update: 0 [ms]
[OGL LOG][Proc: 0]p_non_local_coeffs: call_update: 0 [ms]
[OGL LOG][Proc: 0]p: update_local_matrix_data: 8.882 [ms]
[OGL LOG][Proc: 0]p: update_non_local_matrix_data: 0.459 [ms]
[OGL LOG][Proc: 0]p: regenerate_distributed_matrix: 58.883 [ms]
[OGL LOG][Proc: 0]p_matrix: call_update: 59.265 [ms]
[OGL LOG][Proc: 0]p_rhs: call_update: 1.583 [ms]
[OGL LOG][Proc: 0]p: init_precond: 0.042 [ms]
[OGL LOG][StoppingCriterion.H:239] Creating stopping criterion with minIter 1857 frequency 14
[OGL LOG][Proc: 0]p: generate_solver: 0.022 [ms]
[OGL LOG][Proc: 0]p: solve: 3616.23 [ms]
[OGL LOG][Proc: 0]p: copy_x_back: 1.44 [ms]
[OGL LOG][lduLduBase.H:330] 
Statistics:
	Time per iteration: 1168 [mu s]
	Time per residual norm calculation: 190.000000 [mu s]
	Time per iteration and DOF: 0.018250 [ns]
	Retrieve results bandwidth 4.444000 [GByte/s]
[OGL LOG][Proc: 0]p: solve_multi_gpu: 3683.89 [ms]
nonedpcppGKOCG:  Solving for p, Initial residual = 0.891676, Final residual = 8.92697e-05, No Iterations 3095
[INFO] SolveP: 3696.24 [ms]
time step continuity errors : sum local = 1.34881e-08, global = 1.47923e-23, cumulative = 2.57042e-21
[INFO] ContinuityError: 11.19 [ms]
[INFO] CorrectBoundary: 0.377 [ms]
[INFO] PISOStep: 3855.59 [ms]
[INFO] TimeStep: 8568.16 [ms]
ExecutionTime = 69.77 s  ClockTime = 73 s

Time = 0.000875

Courant Number mean: 0.0281175 max: 0.612899
[INFO] MatrixAssemblyU: 68.343 [ms]
DILUPBiCGStab:  Solving for Ux, Initial residual = 0.0351549, Final residual = 0.00426556, No Iterations 5
DILUPBiCGStab:  Solving for Uy, Initial residual = 0.176993, Final residual = 0.0170311, No Iterations 5
DILUPBiCGStab:  Solving for Uz, Initial residual = 0.694686, Final residual = 0.0429816, No Iterations 5
[INFO] MomentumPredictor: 734.152 [ms]
[INFO] MatrixAssemblyPI: 79.073 [ms]
[INFO] AdjustPhi: 12.398 [ms]
[INFO] ConstrainPressure: 0.002 [ms]
[INFO] MatrixAssemblyPII: 24.219 [ms]
[OGL LOG][Proc: 0]: global_index_init: 0.096 [ms]
[OGL LOG][Proc: 0]p_local_coeffs: call_update: 0 [ms]
[OGL LOG][Proc: 0]p_non_local_coeffs: call_update: 0 [ms]
[OGL LOG][Proc: 0]p: update_local_matrix_data: 9.378 [ms]
[OGL LOG][Proc: 0]p: update_non_local_matrix_data: 0.451 [ms]
[OGL LOG][Proc: 0]p: regenerate_distributed_matrix: 56.413 [ms]
[OGL LOG][Proc: 0]p_matrix: call_update: 56.796 [ms]
[OGL LOG][Proc: 0]p_rhs: call_update: 2.033 [ms]
[OGL LOG][Proc: 0]p: init_precond: 0.04 [ms]
[OGL LOG][StoppingCriterion.H:239] Creating stopping criterion with minIter 1857 frequency 14
[OGL LOG][Proc: 0]p: generate_solver: 0.022 [ms]
[OGL LOG][Proc: 0]p: solve: 3617.04 [ms]
[OGL LOG][Proc: 0]p: copy_x_back: 1.468 [ms]
[OGL LOG][lduLduBase.H:330] 
Statistics:
	Time per iteration: 1168 [mu s]
	Time per residual norm calculation: 165.000000 [mu s]
	Time per iteration and DOF: 0.018250 [ns]
	Retrieve results bandwidth 4.359000 [GByte/s]
[OGL LOG][Proc: 0]p: solve_multi_gpu: 3679.75 [ms]
nonedpcppGKOCG:  Solving for p, Initial residual = 0.962843, Final residual = 8.868e-05, No Iterations 3095
[INFO] SolveP: 3692.27 [ms]
time step continuity errors : sum local = 1.48158e-08, global = -3.07482e-22, cumulative = 2.26294e-21
[INFO] ContinuityError: 12.939 [ms]
[INFO] CorrectBoundary: 0.913 [ms]
[INFO] PISOStep: 3850.04 [ms]
[INFO] MatrixAssemblyPI: 81.224 [ms]
[INFO] AdjustPhi: 17.897 [ms]
[INFO] ConstrainPressure: 0.002 [ms]
[INFO] MatrixAssemblyPII: 24.92 [ms]
[OGL LOG][Proc: 0]: global_index_init: 0.101 [ms]
[OGL LOG][Proc: 0]p_local_coeffs: call_update: 0 [ms]
[OGL LOG][Proc: 0]p_non_local_coeffs: call_update: 0 [ms]
[OGL LOG][Proc: 0]p: update_local_matrix_data: 9.172 [ms]
[OGL LOG][Proc: 0]p: update_non_local_matrix_data: 0.446 [ms]
[OGL LOG][Proc: 0]p: regenerate_distributed_matrix: 59.766 [ms]
[OGL LOG][Proc: 0]p_matrix: call_update: 60.144 [ms]
[OGL LOG][Proc: 0]p_rhs: call_update: 1.957 [ms]
[OGL LOG][Proc: 0]p: init_precond: 0.043 [ms]
[OGL LOG][StoppingCriterion.H:239] Creating stopping criterion with minIter 1857 frequency 13
[OGL LOG][Proc: 0]p: generate_solver: 0.022 [ms]
[OGL LOG][Proc: 0]p: solve: 3614.83 [ms]
[OGL LOG][Proc: 0]p: copy_x_back: 2.256 [ms]
[OGL LOG][lduLduBase.H:330] 
Statistics:
	Time per iteration: 1167 [mu s]
	Time per residual norm calculation: 169.000000 [mu s]
	Time per iteration and DOF: 0.018234 [ns]
	Retrieve results bandwidth 2.836000 [GByte/s]
[OGL LOG][Proc: 0]p: solve_multi_gpu: 3683.77 [ms]
nonedpcppGKOCG:  Solving for p, Initial residual = 0.917453, Final residual = 8.51503e-05, No Iterations 3095
[INFO] SolveP: 3696.09 [ms]
time step continuity errors : sum local = 1.41718e-08, global = 5.53465e-22, cumulative = 2.8164e-21
[INFO] ContinuityError: 11.26 [ms]
[INFO] CorrectBoundary: 0.383 [ms]
[INFO] PISOStep: 3867.26 [ms]
[INFO] TimeStep: 8534.9 [ms]
ExecutionTime = 78.3 s  ClockTime = 81 s

Time = 0.001

Courant Number mean: 0.0298602 max: 0.491058
[INFO] MatrixAssemblyU: 69.157 [ms]
DILUPBiCGStab:  Solving for Ux, Initial residual = 0.0362813, Final residual = 0.00410343, No Iterations 5
DILUPBiCGStab:  Solving for Uy, Initial residual = 0.170556, Final residual = 0.0146699, No Iterations 5
DILUPBiCGStab:  Solving for Uz, Initial residual = 0.68173, Final residual = 0.0402814, No Iterations 5
[INFO] MomentumPredictor: 755.178 [ms]
[INFO] MatrixAssemblyPI: 79.497 [ms]
[INFO] AdjustPhi: 14.138 [ms]
[INFO] ConstrainPressure: 0.002 [ms]
[INFO] MatrixAssemblyPII: 24.24 [ms]
[OGL LOG][Proc: 0]: global_index_init: 0.101 [ms]
[OGL LOG][Proc: 0]p_local_coeffs: call_update: 0 [ms]
[OGL LOG][Proc: 0]p_non_local_coeffs: call_update: 0 [ms]
[OGL LOG][Proc: 0]p: update_local_matrix_data: 9.109 [ms]
[OGL LOG][Proc: 0]p: update_non_local_matrix_data: 0.398 [ms]
[OGL LOG][Proc: 0]p: regenerate_distributed_matrix: 56.996 [ms]
[OGL LOG][Proc: 0]p_matrix: call_update: 57.369 [ms]
[OGL LOG][Proc: 0]p_rhs: call_update: 2.133 [ms]
[OGL LOG][Proc: 0]p: init_precond: 0.039 [ms]
[OGL LOG][StoppingCriterion.H:239] Creating stopping criterion with minIter 1857 frequency 14
[OGL LOG][Proc: 0]p: generate_solver: 0.022 [ms]
[OGL LOG][Proc: 0]p: solve: 3447.68 [ms]
[OGL LOG][Proc: 0]p: copy_x_back: 1.456 [ms]
[OGL LOG][lduLduBase.H:330] 
Statistics:
	Time per iteration: 1166 [mu s]
	Time per residual norm calculation: 196.000000 [mu s]
	Time per iteration and DOF: 0.018219 [ns]
	Retrieve results bandwidth 4.395000 [GByte/s]
[OGL LOG][Proc: 0]p: solve_multi_gpu: 3512.04 [ms]
nonedpcppGKOCG:  Solving for p, Initial residual = 0.960871, Final residual = 9.97544e-05, No Iterations 2955
[INFO] SolveP: 3525 [ms]
time step continuity errors : sum local = 1.91982e-08, global = 6.88331e-22, cumulative = 3.50473e-21
[INFO] ContinuityError: 12.403 [ms]
[INFO] CorrectBoundary: 0.626 [ms]
[INFO] PISOStep: 3687.31 [ms]
[INFO] MatrixAssemblyPI: 78.988 [ms]
[INFO] AdjustPhi: 15.891 [ms]
[INFO] ConstrainPressure: 0.002 [ms]
[INFO] MatrixAssemblyPII: 26.026 [ms]
[OGL LOG][Proc: 0]: global_index_init: 0.106 [ms]
[OGL LOG][Proc: 0]p_local_coeffs: call_update: 0 [ms]
[OGL LOG][Proc: 0]p_non_local_coeffs: call_update: 0 [ms]
[OGL LOG][Proc: 0]p: update_local_matrix_data: 8.945 [ms]
[OGL LOG][Proc: 0]p: update_non_local_matrix_data: 0.457 [ms]
[OGL LOG][Proc: 0]p: regenerate_distributed_matrix: 61.002 [ms]
[OGL LOG][Proc: 0]p_matrix: call_update: 61.435 [ms]
[OGL LOG][Proc: 0]p_rhs: call_update: 1.546 [ms]
[OGL LOG][Proc: 0]p: init_precond: 0.042 [ms]
[OGL LOG][StoppingCriterion.H:239] Creating stopping criterion with minIter 1773 frequency 15
[OGL LOG][Proc: 0]p: generate_solver: 0.023 [ms]
[OGL LOG][Proc: 0]p: solve: 3480.16 [ms]
[OGL LOG][Proc: 0]p: copy_x_back: 1.423 [ms]
[OGL LOG][lduLduBase.H:330] 
Statistics:
	Time per iteration: 1171 [mu s]
	Time per residual norm calculation: 173.000000 [mu s]
	Time per iteration and DOF: 0.018297 [ns]
	Retrieve results bandwidth 4.497000 [GByte/s]
[OGL LOG][Proc: 0]p: solve_multi_gpu: 3549.65 [ms]
nonedpcppGKOCG:  Solving for p, Initial residual = 0.898261, Final residual = 8.74085e-05, No Iterations 2971
[INFO] SolveP: 3563.03 [ms]
time step continuity errors : sum local = 1.70696e-08, global = 2.53473e-22, cumulative = 3.7582e-21
[INFO] ContinuityError: 13.148 [ms]
[INFO] CorrectBoundary: 0.451 [ms]
[INFO] PISOStep: 3730.23 [ms]
[INFO] TimeStep: 8254.16 [ms]
ExecutionTime = 86.57 s  ClockTime = 90 s

Time = 0.001125

Courant Number mean: 0.0316623 max: 0.696666
[INFO] MatrixAssemblyU: 69.823 [ms]
DILUPBiCGStab:  Solving for Ux, Initial residual = 0.0375016, Final residual = 0.00387934, No Iterations 5
DILUPBiCGStab:  Solving for Uy, Initial residual = 0.187431, Final residual = 0.0152186, No Iterations 5
DILUPBiCGStab:  Solving for Uz, Initial residual = 0.691367, Final residual = 0.0385282, No Iterations 5
[INFO] MomentumPredictor: 742.688 [ms]
[INFO] MatrixAssemblyPI: 79.912 [ms]
[INFO] AdjustPhi: 11.607 [ms]
[INFO] ConstrainPressure: 0.001 [ms]
[INFO] MatrixAssemblyPII: 24.241 [ms]
[OGL LOG][Proc: 0]: global_index_init: 0.139 [ms]
[OGL LOG][Proc: 0]p_local_coeffs: call_update: 0 [ms]
[OGL LOG][Proc: 0]p_non_local_coeffs: call_update: 0 [ms]
[OGL LOG][Proc: 0]p: update_local_matrix_data: 8.879 [ms]
[OGL LOG][Proc: 0]p: update_non_local_matrix_data: 0.427 [ms]
[OGL LOG][Proc: 0]p: regenerate_distributed_matrix: 56.722 [ms]
[OGL LOG][Proc: 0]p_matrix: call_update: 57.079 [ms]
[OGL LOG][Proc: 0]p_rhs: call_update: 1.962 [ms]
[OGL LOG][Proc: 0]p: init_precond: 0.034 [ms]
[OGL LOG][StoppingCriterion.H:239] Creating stopping criterion with minIter 1782 frequency 14
[OGL LOG][Proc: 0]p: generate_solver: 0.019 [ms]
[OGL LOG][Proc: 0]p: solve: 3596.32 [ms]
[OGL LOG][Proc: 0]p: copy_x_back: 1.442 [ms]
[OGL LOG][lduLduBase.H:330] 
Statistics:
	Time per iteration: 1167 [mu s]
	Time per residual norm calculation: 206.000000 [mu s]
	Time per iteration and DOF: 0.018234 [ns]
	Retrieve results bandwidth 4.438000 [GByte/s]
[OGL LOG][Proc: 0]p: solve_multi_gpu: 3659.31 [ms]
nonedpcppGKOCG:  Solving for p, Initial residual = 0.968429, Final residual = 8.12946e-05, No Iterations 3081
[INFO] SolveP: 3671.16 [ms]
time step continuity errors : sum local = 1.78477e-08, global = 7.00441e-22, cumulative = 4.45864e-21
[INFO] ContinuityError: 12.965 [ms]
[INFO] CorrectBoundary: 0.388 [ms]
[INFO] PISOStep: 3832.89 [ms]
[INFO] MatrixAssemblyPI: 81.073 [ms]
[INFO] AdjustPhi: 12.53 [ms]
[INFO] ConstrainPressure: 0.002 [ms]
[INFO] MatrixAssemblyPII: 25.929 [ms]
[OGL LOG][Proc: 0]: global_index_init: 0.096 [ms]
[OGL LOG][Proc: 0]p_local_coeffs: call_update: 0 [ms]
[OGL LOG][Proc: 0]p_non_local_coeffs: call_update: 0 [ms]
[OGL LOG][Proc: 0]p: update_local_matrix_data: 9.162 [ms]
[OGL LOG][Proc: 0]p: update_non_local_matrix_data: 0.432 [ms]
[OGL LOG][Proc: 0]p: regenerate_distributed_matrix: 59.289 [ms]
[OGL LOG][Proc: 0]p_matrix: call_update: 59.659 [ms]
[OGL LOG][Proc: 0]p_rhs: call_update: 2.057 [ms]
[OGL LOG][Proc: 0]p: init_precond: 0.039 [ms]
[OGL LOG][StoppingCriterion.H:239] Creating stopping criterion with minIter 1848 frequency 15
[OGL LOG][Proc: 0]p: generate_solver: 0.021 [ms]
[OGL LOG][Proc: 0]p: solve: 3618.91 [ms]
[OGL LOG][Proc: 0]p: copy_x_back: 1.425 [ms]
[OGL LOG][lduLduBase.H:330] 
Statistics:
	Time per iteration: 1176 [mu s]
	Time per residual norm calculation: 176.000000 [mu s]
	Time per iteration and DOF: 0.018375 [ns]
	Retrieve results bandwidth 4.491000 [GByte/s]
[OGL LOG][Proc: 0]p: solve_multi_gpu: 3687.72 [ms]
nonedpcppGKOCG:  Solving for p, Initial residual = 0.918439, Final residual = 8.26541e-05, No Iterations 3076
[INFO] SolveP: 3700.53 [ms]
time step continuity errors : sum local = 1.81195e-08, global = 7.17696e-22, cumulative = 5.17634e-21
[INFO] ContinuityError: 13.293 [ms]
[INFO] CorrectBoundary: 1.604 [ms]
[INFO] PISOStep: 3864.58 [ms]
[INFO] TimeStep: 8522.26 [ms]
ExecutionTime = 95.09 s  ClockTime = 98 s

Time = 0.00125

Courant Number mean: 0.0330712 max: 0.50731
[INFO] MatrixAssemblyU: 69.277 [ms]
DILUPBiCGStab:  Solving for Ux, Initial residual = 0.0408495, Final residual = 0.00393003, No Iterations 5
DILUPBiCGStab:  Solving for Uy, Initial residual = 0.186256, Final residual = 0.0133825, No Iterations 5
DILUPBiCGStab:  Solving for Uz, Initial residual = 0.692599, Final residual = 0.0372081, No Iterations 5
[INFO] MomentumPredictor: 739.68 [ms]
[INFO] MatrixAssemblyPI: 79.159 [ms]
[INFO] AdjustPhi: 13.244 [ms]
[INFO] ConstrainPressure: 0.002 [ms]
[INFO] MatrixAssemblyPII: 24.235 [ms]
[OGL LOG][Proc: 0]: global_index_init: 0.13 [ms]
[OGL LOG][Proc: 0]p_local_coeffs: call_update: 0 [ms]
[OGL LOG][Proc: 0]p_non_local_coeffs: call_update: 0 [ms]
[OGL LOG][Proc: 0]p: update_local_matrix_data: 9.128 [ms]
[OGL LOG][Proc: 0]p: update_non_local_matrix_data: 0.415 [ms]
[OGL LOG][Proc: 0]p: regenerate_distributed_matrix: 55.243 [ms]
[OGL LOG][Proc: 0]p_matrix: call_update: 55.672 [ms]
[OGL LOG][Proc: 0]p_rhs: call_update: 1.464 [ms]
[OGL LOG][Proc: 0]p: init_precond: 0.047 [ms]
[OGL LOG][StoppingCriterion.H:239] Creating stopping criterion with minIter 1845 frequency 14
[OGL LOG][Proc: 0]p: generate_solver: 0.022 [ms]
[OGL LOG][Proc: 0]p: solve: 3614.62 [ms]
[OGL LOG][Proc: 0]p: copy_x_back: 1.438 [ms]
[OGL LOG][lduLduBase.H:330] 
Statistics:
	Time per iteration: 1173 [mu s]
	Time per residual norm calculation: 177.000000 [mu s]
	Time per iteration and DOF: 0.018328 [ns]
	Retrieve results bandwidth 4.450000 [GByte/s]
[OGL LOG][Proc: 0]p: solve_multi_gpu: 3677.1 [ms]
nonedpcppGKOCG:  Solving for p, Initial residual = 0.967878, Final residual = 8.47186e-05, No Iterations 3081
[INFO] SolveP: 3689.17 [ms]
time step continuity errors : sum local = 2.16431e-08, global = 3.49833e-22, cumulative = 5.52617e-21
[INFO] ContinuityError: 13.047 [ms]
[INFO] CorrectBoundary: 2.878 [ms]
[INFO] PISOStep: 3850.84 [ms]
[INFO] MatrixAssemblyPI: 77.781 [ms]
[INFO] AdjustPhi: 16.47 [ms]
[INFO] ConstrainPressure: 0.002 [ms]
[INFO] MatrixAssemblyPII: 25.027 [ms]
[OGL LOG][Proc: 0]: global_index_init: 0.148 [ms]
[OGL LOG][Proc: 0]p_local_coeffs: call_update: 0 [ms]
[OGL LOG][Proc: 0]p_non_local_coeffs: call_update: 0 [ms]
[OGL LOG][Proc: 0]p: update_local_matrix_data: 8.887 [ms]
[OGL LOG][Proc: 0]p: update_non_local_matrix_data: 0.402 [ms]
[OGL LOG][Proc: 0]p: regenerate_distributed_matrix: 57.98 [ms]
[OGL LOG][Proc: 0]p_matrix: call_update: 58.35 [ms]
[OGL LOG][Proc: 0]p_rhs: call_update: 2.093 [ms]
[OGL LOG][Proc: 0]p: init_precond: 0.041 [ms]
[OGL LOG][StoppingCriterion.H:239] Creating stopping criterion with minIter 1848 frequency 14
[OGL LOG][Proc: 0]p: generate_solver: 0.022 [ms]
[OGL LOG][Proc: 0]p: solve: 3617.59 [ms]
[OGL LOG][Proc: 0]p: copy_x_back: 1.437 [ms]
[OGL LOG][lduLduBase.H:330] 
Statistics:
	Time per iteration: 1179 [mu s]
	Time per residual norm calculation: 182.000000 [mu s]
	Time per iteration and DOF: 0.018422 [ns]
	Retrieve results bandwidth 4.453000 [GByte/s]
[OGL LOG][Proc: 0]p: solve_multi_gpu: 3685.31 [ms]
nonedpcppGKOCG:  Solving for p, Initial residual = 0.903658, Final residual = 9.95964e-05, No Iterations 3067
[INFO] SolveP: 3697.24 [ms]
time step continuity errors : sum local = 2.57836e-08, global = 7.51584e-22, cumulative = 6.27776e-21
[INFO] ContinuityError: 13.871 [ms]
[INFO] CorrectBoundary: 0.836 [ms]
[INFO] PISOStep: 3863.09 [ms]
[INFO] TimeStep: 8536.58 [ms]
ExecutionTime = 103.62 s  ClockTime = 107 s

Time = 0.001375

Courant Number mean: 0.0346702 max: 0.826509
[INFO] MatrixAssemblyU: 68.537 [ms]
DILUPBiCGStab:  Solving for Ux, Initial residual = 0.0435798, Final residual = 0.0037672, No Iterations 5
DILUPBiCGStab:  Solving for Uy, Initial residual = 0.209854, Final residual = 0.0145232, No Iterations 5
DILUPBiCGStab:  Solving for Uz, Initial residual = 0.706289, Final residual = 0.0366908, No Iterations 5
[INFO] MomentumPredictor: 746.856 [ms]
[INFO] MatrixAssemblyPI: 79.05 [ms]
[INFO] AdjustPhi: 12.063 [ms]
[INFO] ConstrainPressure: 0.002 [ms]
[INFO] MatrixAssemblyPII: 24.196 [ms]
[OGL LOG][Proc: 0]: global_index_init: 0.103 [ms]
[OGL LOG][Proc: 0]p_local_coeffs: call_update: 0 [ms]
[OGL LOG][Proc: 0]p_non_local_coeffs: call_update: 0 [ms]
[OGL LOG][Proc: 0]p: update_local_matrix_data: 8.929 [ms]
[OGL LOG][Proc: 0]p: update_non_local_matrix_data: 0.414 [ms]
[OGL LOG][Proc: 0]p: regenerate_distributed_matrix: 57.469 [ms]
[OGL LOG][Proc: 0]p_matrix: call_update: 57.826 [ms]
[OGL LOG][Proc: 0]p_rhs: call_update: 1.891 [ms]
[OGL LOG][Proc: 0]p: init_precond: 0.04 [ms]
[OGL LOG][StoppingCriterion.H:239] Creating stopping criterion with minIter 1840 frequency 14
[OGL LOG][Proc: 0]p: generate_solver: 0.022 [ms]
[OGL LOG][Proc: 0]p: solve: 3612 [ms]
[OGL LOG][Proc: 0]p: copy_x_back: 1.469 [ms]
[OGL LOG][lduLduBase.H:330] 
Statistics:
	Time per iteration: 1172 [mu s]
	Time per residual norm calculation: 204.000000 [mu s]
	Time per iteration and DOF: 0.018312 [ns]
	Retrieve results bandwidth 4.356000 [GByte/s]
[OGL LOG][Proc: 0]p: solve_multi_gpu: 3677.19 [ms]
nonedpcppGKOCG:  Solving for p, Initial residual = 0.973291, Final residual = 8.66932e-05, No Iterations 3081
[INFO] SolveP: 3689.16 [ms]
time step continuity errors : sum local = 2.56185e-08, global = 5.24975e-22, cumulative = 6.80273e-21
[INFO] ContinuityError: 12.565 [ms]
[INFO] CorrectBoundary: 0.413 [ms]
[INFO] PISOStep: 3845.76 [ms]
[INFO] MatrixAssemblyPI: 79.709 [ms]
[INFO] AdjustPhi: 15.299 [ms]
[INFO] ConstrainPressure: 0.002 [ms]
[INFO] MatrixAssemblyPII: 24.942 [ms]
[OGL LOG][Proc: 0]: global_index_init: 0.065 [ms]
[OGL LOG][Proc: 0]p_local_coeffs: call_update: 0 [ms]
[OGL LOG][Proc: 0]p_non_local_coeffs: call_update: 0 [ms]
[OGL LOG][Proc: 0]p: update_local_matrix_data: 8.725 [ms]
[OGL LOG][Proc: 0]p: update_non_local_matrix_data: 0.446 [ms]
[OGL LOG][Proc: 0]p: regenerate_distributed_matrix: 59.626 [ms]
[OGL LOG][Proc: 0]p_matrix: call_update: 59.995 [ms]
[OGL LOG][Proc: 0]p_rhs: call_update: 1.691 [ms]
[OGL LOG][Proc: 0]p: init_precond: 0.041 [ms]
[OGL LOG][StoppingCriterion.H:239] Creating stopping criterion with minIter 1848 frequency 15
[OGL LOG][Proc: 0]p: generate_solver: 0.021 [ms]
[OGL LOG][Proc: 0]p: solve: 3597.07 [ms]
[OGL LOG][Proc: 0]p: copy_x_back: 1.411 [ms]
[OGL LOG][lduLduBase.H:330] 
Statistics:
	Time per iteration: 1169 [mu s]
	Time per residual norm calculation: 160.000000 [mu s]
	Time per iteration and DOF: 0.018266 [ns]
	Retrieve results bandwidth 4.535000 [GByte/s]
[OGL LOG][Proc: 0]p: solve_multi_gpu: 3667.81 [ms]
nonedpcppGKOCG:  Solving for p, Initial residual = 0.919243, Final residual = 8.66881e-05, No Iterations 3076
[INFO] SolveP: 3679.87 [ms]
time step continuity errors : sum local = 2.56307e-08, global = 1.12225e-21, cumulative = 7.92498e-21
[INFO] ContinuityError: 13.044 [ms]
[INFO] CorrectBoundary: 3.161 [ms]
[INFO] PISOStep: 3845.53 [ms]
[INFO] TimeStep: 8519.04 [ms]
ExecutionTime = 112.15 s  ClockTime = 115 s

Time = 0.0015

Courant Number mean: 0.0358633 max: 0.599508
[INFO] MatrixAssemblyU: 68.63 [ms]
DILUPBiCGStab:  Solving for Ux, Initial residual = 0.0489776, Final residual = 0.00396546, No Iterations 5
DILUPBiCGStab:  Solving for Uy, Initial residual = 0.214132, Final residual = 0.0132729, No Iterations 5
DILUPBiCGStab:  Solving for Uz, Initial residual = 0.709888, Final residual = 0.0363052, No Iterations 5
[INFO] MomentumPredictor: 755.295 [ms]
[INFO] MatrixAssemblyPI: 79.116 [ms]
[INFO] AdjustPhi: 13.858 [ms]
[INFO] ConstrainPressure: 0.002 [ms]
[INFO] MatrixAssemblyPII: 24.162 [ms]
[OGL LOG][Proc: 0]: global_index_init: 0.093 [ms]
[OGL LOG][Proc: 0]p_local_coeffs: call_update: 0 [ms]
[OGL LOG][Proc: 0]p_non_local_coeffs: call_update: 0 [ms]
[OGL LOG][Proc: 0]p: update_local_matrix_data: 9.179 [ms]
[OGL LOG][Proc: 0]p: update_non_local_matrix_data: 0.464 [ms]
[OGL LOG][Proc: 0]p: regenerate_distributed_matrix: 56.306 [ms]
[OGL LOG][Proc: 0]p_matrix: call_update: 56.674 [ms]
[OGL LOG][Proc: 0]p_rhs: call_update: 1.93 [ms]
[OGL LOG][Proc: 0]p: init_precond: 0.039 [ms]
[OGL LOG][StoppingCriterion.H:239] Creating stopping criterion with minIter 1845 frequency 13
[OGL LOG][Proc: 0]p: generate_solver: 0.022 [ms]
[OGL LOG][Proc: 0]p: solve: 3607.55 [ms]
[OGL LOG][Proc: 0]p: copy_x_back: 1.447 [ms]
[OGL LOG][lduLduBase.H:330] 
Statistics:
	Time per iteration: 1170 [mu s]
	Time per residual norm calculation: 165.000000 [mu s]
	Time per iteration and DOF: 0.018281 [ns]
	Retrieve results bandwidth 4.422000 [GByte/s]
[OGL LOG][Proc: 0]p: solve_multi_gpu: 3671.05 [ms]
nonedpcppGKOCG:  Solving for p, Initial residual = 0.973568, Final residual = 8.86707e-05, No Iterations 3082
[INFO] SolveP: 3684.57 [ms]
time step continuity errors : sum local = 3.06983e-08, global = 1.95776e-21, cumulative = 9.88274e-21
[INFO] ContinuityError: 12.762 [ms]
[INFO] CorrectBoundary: 2.828 [ms]
[INFO] PISOStep: 3846.02 [ms]
[INFO] MatrixAssemblyPI: 78.634 [ms]
[INFO] AdjustPhi: 14.028 [ms]
[INFO] ConstrainPressure: 0.001 [ms]
[INFO] MatrixAssemblyPII: 24.918 [ms]
[OGL LOG][Proc: 0]: global_index_init: 0.454 [ms]
[OGL LOG][Proc: 0]p_local_coeffs: call_update: 0 [ms]
[OGL LOG][Proc: 0]p_non_local_coeffs: call_update: 0 [ms]
[OGL LOG][Proc: 0]p: update_local_matrix_data: 8.999 [ms]
[OGL LOG][Proc: 0]p: update_non_local_matrix_data: 0.441 [ms]
[OGL LOG][Proc: 0]p: regenerate_distributed_matrix: 58.978 [ms]
[OGL LOG][Proc: 0]p_matrix: call_update: 59.343 [ms]
[OGL LOG][Proc: 0]p_rhs: call_update: 1.972 [ms]
[OGL LOG][Proc: 0]p: init_precond: 0.041 [ms]
[OGL LOG][StoppingCriterion.H:239] Creating stopping criterion with minIter 1849 frequency 13
[OGL LOG][Proc: 0]p: generate_solver: 0.022 [ms]
[OGL LOG][Proc: 0]p: solve: 3592.6 [ms]
[OGL LOG][Proc: 0]p: copy_x_back: 2.258 [ms]
[OGL LOG][lduLduBase.H:330] 
Statistics:
	Time per iteration: 1170 [mu s]
	Time per residual norm calculation: 215.000000 [mu s]
	Time per iteration and DOF: 0.018281 [ns]
	Retrieve results bandwidth 2.834000 [GByte/s]
[OGL LOG][Proc: 0]p: solve_multi_gpu: 3661.41 [ms]
nonedpcppGKOCG:  Solving for p, Initial residual = 0.908451, Final residual = 9.55446e-05, No Iterations 3069
[INFO] SolveP: 3673.86 [ms]
time step continuity errors : sum local = 3.34779e-08, global = 2.67554e-22, cumulative = 1.01503e-20
[INFO] ContinuityError: 11.564 [ms]
[INFO] CorrectBoundary: 0.408 [ms]
[INFO] PISOStep: 3837.24 [ms]
[INFO] TimeStep: 8520.38 [ms]
ExecutionTime = 120.67 s  ClockTime = 124 s

Time = 0.001625

Courant Number mean: 0.0373583 max: 1.1503
[INFO] MatrixAssemblyU: 69.069 [ms]
DILUPBiCGStab:  Solving for Ux, Initial residual = 0.0535736, Final residual = 0.0039092, No Iterations 5
DILUPBiCGStab:  Solving for Uy, Initial residual = 0.242245, Final residual = 0.0146549, No Iterations 5
DILUPBiCGStab:  Solving for Uz, Initial residual = 0.721895, Final residual = 0.0360438, No Iterations 5
[INFO] MomentumPredictor: 764.301 [ms]
[INFO] MatrixAssemblyPI: 82.601 [ms]
[INFO] AdjustPhi: 12.028 [ms]
[INFO] ConstrainPressure: 0.002 [ms]
[INFO] MatrixAssemblyPII: 25.323 [ms]
[OGL LOG][Proc: 0]: global_index_init: 0.066 [ms]
[OGL LOG][Proc: 0]p_local_coeffs: call_update: 0 [ms]
[OGL LOG][Proc: 0]p_non_local_coeffs: call_update: 0 [ms]
[OGL LOG][Proc: 0]p: update_local_matrix_data: 9.398 [ms]
[OGL LOG][Proc: 0]p: update_non_local_matrix_data: 0.477 [ms]
[OGL LOG][Proc: 0]p: regenerate_distributed_matrix: 57.995 [ms]
[OGL LOG][Proc: 0]p_matrix: call_update: 58.364 [ms]
[OGL LOG][Proc: 0]p_rhs: call_update: 1.812 [ms]
[OGL LOG][Proc: 0]p: init_precond: 0.043 [ms]
[OGL LOG][StoppingCriterion.H:239] Creating stopping criterion with minIter 1841 frequency 15
[OGL LOG][Proc: 0]p: generate_solver: 0.022 [ms]
[OGL LOG][Proc: 0]p: solve: 3601.56 [ms]
[OGL LOG][Proc: 0]p: copy_x_back: 1.401 [ms]
[OGL LOG][lduLduBase.H:330] 
Statistics:
	Time per iteration: 1170 [mu s]
	Time per residual norm calculation: 202.000000 [mu s]
	Time per iteration and DOF: 0.018281 [ns]
	Retrieve results bandwidth 4.568000 [GByte/s]
[OGL LOG][Proc: 0]p: solve_multi_gpu: 3666.59 [ms]
nonedpcppGKOCG:  Solving for p, Initial residual = 0.977017, Final residual = 9.26692e-05, No Iterations 3076
[INFO] SolveP: 3679.03 [ms]
time step continuity errors : sum local = 3.74804e-08, global = -6.03066e-23, cumulative = 1.009e-20
[INFO] ContinuityError: 12.898 [ms]
[INFO] CorrectBoundary: 0.429 [ms]
[INFO] PISOStep: 3840.33 [ms]
[INFO] MatrixAssemblyPI: 79.186 [ms]
[INFO] AdjustPhi: 14.885 [ms]
[INFO] ConstrainPressure: 0.002 [ms]
[INFO] MatrixAssemblyPII: 24.967 [ms]
[OGL LOG][Proc: 0]: global_index_init: 0.761 [ms]
[OGL LOG][Proc: 0]p_local_coeffs: call_update: 0 [ms]
[OGL LOG][Proc: 0]p_non_local_coeffs: call_update: 0 [ms]
[OGL LOG][Proc: 0]p: update_local_matrix_data: 9.158 [ms]
[OGL LOG][Proc: 0]p: update_non_local_matrix_data: 0.444 [ms]
[OGL LOG][Proc: 0]p: regenerate_distributed_matrix: 59.079 [ms]
[OGL LOG][Proc: 0]p_matrix: call_update: 59.471 [ms]
[OGL LOG][Proc: 0]p_rhs: call_update: 2.786 [ms]
[OGL LOG][Proc: 0]p: init_precond: 0.038 [ms]
[OGL LOG][StoppingCriterion.H:239] Creating stopping criterion with minIter 1845 frequency 15
[OGL LOG][Proc: 0]p: generate_solver: 0.021 [ms]
[OGL LOG][Proc: 0]p: solve: 3599.92 [ms]
[OGL LOG][Proc: 0]p: copy_x_back: 1.438 [ms]
[OGL LOG][lduLduBase.H:330] 
Statistics:
	Time per iteration: 1170 [mu s]
	Time per residual norm calculation: 176.000000 [mu s]
	Time per iteration and DOF: 0.018281 [ns]
	Retrieve results bandwidth 4.450000 [GByte/s]
[OGL LOG][Proc: 0]p: solve_multi_gpu: 3668.16 [ms]
nonedpcppGKOCG:  Solving for p, Initial residual = 0.919975, Final residual = 8.80181e-05, No Iterations 3076
[INFO] SolveP: 3681.03 [ms]
time step continuity errors : sum local = 3.56824e-08, global = -2.07752e-22, cumulative = 9.88223e-21
[INFO] ContinuityError: 13.673 [ms]
[INFO] CorrectBoundary: 2.983 [ms]
[INFO] PISOStep: 3846.19 [ms]
[INFO] TimeStep: 8531.87 [ms]
ExecutionTime = 129.2 s  ClockTime = 132 s

Time = 0.00175

Courant Number mean: 0.0384101 max: 1.0237
[INFO] MatrixAssemblyU: 68.663 [ms]
DILUPBiCGStab:  Solving for Ux, Initial residual = 0.0614461, Final residual = 0.00420538, No Iterations 5
DILUPBiCGStab:  Solving for Uy, Initial residual = 0.252419, Final residual = 0.0139632, No Iterations 5
DILUPBiCGStab:  Solving for Uz, Initial residual = 0.725948, Final residual = 0.0358276, No Iterations 5
[INFO] MomentumPredictor: 749.815 [ms]
[INFO] MatrixAssemblyPI: 79.146 [ms]
[INFO] AdjustPhi: 12.53 [ms]
[INFO] ConstrainPressure: 0.002 [ms]
[INFO] MatrixAssemblyPII: 24.244 [ms]
[OGL LOG][Proc: 0]: global_index_init: 0.126 [ms]
[OGL LOG][Proc: 0]p_local_coeffs: call_update: 0 [ms]
[OGL LOG][Proc: 0]p_non_local_coeffs: call_update: 0 [ms]
[OGL LOG][Proc: 0]p: update_local_matrix_data: 9.101 [ms]
[OGL LOG][Proc: 0]p: update_non_local_matrix_data: 0.47 [ms]
[OGL LOG][Proc: 0]p: regenerate_distributed_matrix: 56.838 [ms]
[OGL LOG][Proc: 0]p_matrix: call_update: 57.221 [ms]
[OGL LOG][Proc: 0]p_rhs: call_update: 2.201 [ms]
[OGL LOG][Proc: 0]p: init_precond: 0.04 [ms]
[OGL LOG][StoppingCriterion.H:239] Creating stopping criterion with minIter 1845 frequency 14
[OGL LOG][Proc: 0]p: generate_solver: 0.023 [ms]
[OGL LOG][Proc: 0]p: solve: 3597.81 [ms]
[OGL LOG][Proc: 0]p: copy_x_back: 1.467 [ms]
[OGL LOG][lduLduBase.H:330] 
Statistics:
	Time per iteration: 1167 [mu s]
	Time per residual norm calculation: 184.000000 [mu s]
	Time per iteration and DOF: 0.018234 [ns]
	Retrieve results bandwidth 4.362000 [GByte/s]
[OGL LOG][Proc: 0]p: solve_multi_gpu: 3661.91 [ms]
nonedpcppGKOCG:  Solving for p, Initial residual = 0.977717, Final residual = 9.08446e-05, No Iterations 3081
[INFO] SolveP: 3674.61 [ms]
time step continuity errors : sum local = 4.32648e-08, global = 7.25877e-22, cumulative = 1.06081e-20
[INFO] ContinuityError: 13.23 [ms]
[INFO] CorrectBoundary: 0.559 [ms]
[INFO] PISOStep: 3836.49 [ms]
[INFO] MatrixAssemblyPI: 80.876 [ms]
[INFO] AdjustPhi: 10.625 [ms]
[INFO] ConstrainPressure: 0.002 [ms]
[INFO] MatrixAssemblyPII: 26.15 [ms]
[OGL LOG][Proc: 0]: global_index_init: 0.171 [ms]
[OGL LOG][Proc: 0]p_local_coeffs: call_update: 0 [ms]
[OGL LOG][Proc: 0]p_non_local_coeffs: call_update: 0 [ms]
[OGL LOG][Proc: 0]p: update_local_matrix_data: 9.49 [ms]
[OGL LOG][Proc: 0]p: update_non_local_matrix_data: 0.45 [ms]
[OGL LOG][Proc: 0]p: regenerate_distributed_matrix: 59.782 [ms]
[OGL LOG][Proc: 0]p_matrix: call_update: 60.196 [ms]
[OGL LOG][Proc: 0]p_rhs: call_update: 1.541 [ms]
[OGL LOG][Proc: 0]p: init_precond: 0.036 [ms]
[OGL LOG][StoppingCriterion.H:239] Creating stopping criterion with minIter 1848 frequency 14
[OGL LOG][Proc: 0]p: generate_solver: 0.015 [ms]
[OGL LOG][Proc: 0]p: solve: 3606.91 [ms]
[OGL LOG][Proc: 0]p: copy_x_back: 1.46 [ms]
[OGL LOG][lduLduBase.H:330] 
Statistics:
	Time per iteration: 1170 [mu s]
	Time per residual norm calculation: 185.000000 [mu s]
	Time per iteration and DOF: 0.018281 [ns]
	Retrieve results bandwidth 4.383000 [GByte/s]
[OGL LOG][Proc: 0]p: solve_multi_gpu: 3675.95 [ms]
nonedpcppGKOCG:  Solving for p, Initial residual = 0.912442, Final residual = 8.49159e-05, No Iterations 3081
[INFO] SolveP: 3688.88 [ms]
time step continuity errors : sum local = 4.08865e-08, global = 4.63169e-22, cumulative = 1.10713e-20
[INFO] ContinuityError: 12.289 [ms]
[INFO] CorrectBoundary: 0.261 [ms]
[INFO] PISOStep: 3847.38 [ms]
[INFO] TimeStep: 8516.53 [ms]
ExecutionTime = 137.71 s  ClockTime = 141 s

Time = 0.001875

Courant Number mean: 0.0398744 max: 1.68567
[INFO] MatrixAssemblyU: 68.476 [ms]
DILUPBiCGStab:  Solving for Ux, Initial residual = 0.068329, Final residual = 0.00429699, No Iterations 5
DILUPBiCGStab:  Solving for Uy, Initial residual = 0.284168, Final residual = 0.0154334, No Iterations 5
DILUPBiCGStab:  Solving for Uz, Initial residual = 0.734598, Final residual = 0.0355908, No Iterations 5
[INFO] MomentumPredictor: 741.296 [ms]
[INFO] MatrixAssemblyPI: 78.948 [ms]
[INFO] AdjustPhi: 12.626 [ms]
[INFO] ConstrainPressure: 0.001 [ms]
[INFO] MatrixAssemblyPII: 24.307 [ms]
[OGL LOG][Proc: 0]: global_index_init: 0.135 [ms]
[OGL LOG][Proc: 0]p_local_coeffs: call_update: 0 [ms]
[OGL LOG][Proc: 0]p_non_local_coeffs: call_update: 0 [ms]
[OGL LOG][Proc: 0]p: update_local_matrix_data: 9.188 [ms]
[OGL LOG][Proc: 0]p: update_non_local_matrix_data: 0.447 [ms]
[OGL LOG][Proc: 0]p: regenerate_distributed_matrix: 56.454 [ms]
[OGL LOG][Proc: 0]p_matrix: call_update: 56.832 [ms]
[OGL LOG][Proc: 0]p_rhs: call_update: 2.147 [ms]
[OGL LOG][Proc: 0]p: init_precond: 0.043 [ms]
[OGL LOG][StoppingCriterion.H:239] Creating stopping criterion with minIter 1848 frequency 14
[OGL LOG][Proc: 0]p: generate_solver: 0.022 [ms]
[OGL LOG][Proc: 0]p: solve: 3526.11 [ms]
[OGL LOG][Proc: 0]p: copy_x_back: 1.446 [ms]
[OGL LOG][lduLduBase.H:330] 
Statistics:
	Time per iteration: 1171 [mu s]
	Time per residual norm calculation: 182.000000 [mu s]
	Time per iteration and DOF: 0.018297 [ns]
	Retrieve results bandwidth 4.426000 [GByte/s]
[OGL LOG][Proc: 0]p: solve_multi_gpu: 3589.7 [ms]
nonedpcppGKOCG:  Solving for p, Initial residual = 0.979768, Final residual = 9.90652e-05, No Iterations 3011
[INFO] SolveP: 3601.89 [ms]
time step continuity errors : sum local = 5.54896e-08, global = 1.12781e-22, cumulative = 1.11841e-20
[INFO] ContinuityError: 9.775 [ms]
[INFO] CorrectBoundary: 0.484 [ms]
[INFO] PISOStep: 3759.41 [ms]
[INFO] MatrixAssemblyPI: 79.555 [ms]
[INFO] AdjustPhi: 15.336 [ms]
[INFO] ConstrainPressure: 0.002 [ms]
[INFO] MatrixAssemblyPII: 24.925 [ms]
[OGL LOG][Proc: 0]: global_index_init: 0.104 [ms]
[OGL LOG][Proc: 0]p_local_coeffs: call_update: 0 [ms]
[OGL LOG][Proc: 0]p_non_local_coeffs: call_update: 0 [ms]
[OGL LOG][Proc: 0]p: update_local_matrix_data: 9.329 [ms]
[OGL LOG][Proc: 0]p: update_non_local_matrix_data: 0.428 [ms]
[OGL LOG][Proc: 0]p: regenerate_distributed_matrix: 57.139 [ms]
[OGL LOG][Proc: 0]p_matrix: call_update: 57.505 [ms]
[OGL LOG][Proc: 0]p_rhs: call_update: 1.583 [ms]
[OGL LOG][Proc: 0]p: init_precond: 0.047 [ms]
[OGL LOG][StoppingCriterion.H:239] Creating stopping criterion with minIter 1806 frequency 14
[OGL LOG][Proc: 0]p: generate_solver: 0.022 [ms]
[OGL LOG][Proc: 0]p: solve: 3589.25 [ms]
[OGL LOG][Proc: 0]p: copy_x_back: 1.438 [ms]
[OGL LOG][lduLduBase.H:330] 
Statistics:
	Time per iteration: 1170 [mu s]
	Time per residual norm calculation: 167.000000 [mu s]
	Time per iteration and DOF: 0.018281 [ns]
	Retrieve results bandwidth 4.450000 [GByte/s]
[OGL LOG][Proc: 0]p: solve_multi_gpu: 3653.67 [ms]
nonedpcppGKOCG:  Solving for p, Initial residual = 0.92045, Final residual = 9.71982e-05, No Iterations 3067
[INFO] SolveP: 3666.22 [ms]
time step continuity errors : sum local = 5.46537e-08, global = 6.12993e-22, cumulative = 1.17971e-20
[INFO] ContinuityError: 13.545 [ms]
[INFO] CorrectBoundary: 0.282 [ms]
[INFO] PISOStep: 3830.1 [ms]
[INFO] TimeStep: 8417.27 [ms]
ExecutionTime = 146.13 s  ClockTime = 149 s

Time = 0.002

Courant Number mean: 0.040853 max: 1.7201
[INFO] MatrixAssemblyU: 68.838 [ms]
DILUPBiCGStab:  Solving for Ux, Initial residual = 0.0795712, Final residual = 0.0047124, No Iterations 5
DILUPBiCGStab:  Solving for Uy, Initial residual = 0.300554, Final residual = 0.0152266, No Iterations 5
DILUPBiCGStab:  Solving for Uz, Initial residual = 0.738079, Final residual = 0.0354946, No Iterations 5
[INFO] MomentumPredictor: 749.675 [ms]
[INFO] MatrixAssemblyPI: 79.225 [ms]
[INFO] AdjustPhi: 12.911 [ms]
[INFO] ConstrainPressure: 0.002 [ms]
[INFO] MatrixAssemblyPII: 24.275 [ms]
[OGL LOG][Proc: 0]: global_index_init: 0.12 [ms]
[OGL LOG][Proc: 0]p_local_coeffs: call_update: 0 [ms]
[OGL LOG][Proc: 0]p_non_local_coeffs: call_update: 0 [ms]
[OGL LOG][Proc: 0]p: update_local_matrix_data: 9.244 [ms]
[OGL LOG][Proc: 0]p: update_non_local_matrix_data: 0.449 [ms]
[OGL LOG][Proc: 0]p: regenerate_distributed_matrix: 57.041 [ms]
[OGL LOG][Proc: 0]p_matrix: call_update: 58.05 [ms]
[OGL LOG][Proc: 0]p_rhs: call_update: 0.991 [ms]
[OGL LOG][Proc: 0]p: init_precond: 0.041 [ms]
[OGL LOG][StoppingCriterion.H:239] Creating stopping criterion with minIter 1840 frequency 13
[OGL LOG][Proc: 0]p: generate_solver: 0.022 [ms]
[OGL LOG][Proc: 0]p: solve: 3613.86 [ms]
[OGL LOG][Proc: 0]p: copy_x_back: 1.429 [ms]
[OGL LOG][lduLduBase.H:330] 
Statistics:
	Time per iteration: 1172 [mu s]
	Time per residual norm calculation: 170.000000 [mu s]
	Time per iteration and DOF: 0.018312 [ns]
	Retrieve results bandwidth 4.478000 [GByte/s]
[OGL LOG][Proc: 0]p: solve_multi_gpu: 3678.04 [ms]
nonedpcppGKOCG:  Solving for p, Initial residual = 0.980872, Final residual = 9.0801e-05, No Iterations 3082
[INFO] SolveP: 3690.27 [ms]
time step continuity errors : sum local = 6.01218e-08, global = 1.88352e-21, cumulative = 1.36806e-20
[INFO] ContinuityError: 13.368 [ms]
[INFO] CorrectBoundary: 3.075 [ms]
[INFO] PISOStep: 3851.7 [ms]
[INFO] MatrixAssemblyPI: 77.71 [ms]
[INFO] AdjustPhi: 15.476 [ms]
[INFO] ConstrainPressure: 0.002 [ms]
[INFO] MatrixAssemblyPII: 25.021 [ms]
[OGL LOG][Proc: 0]: global_index_init: 0.065 [ms]
[OGL LOG][Proc: 0]p_local_coeffs: call_update: 0 [ms]
[OGL LOG][Proc: 0]p_non_local_coeffs: call_update: 0 [ms]
[OGL LOG][Proc: 0]p: update_local_matrix_data: 9.22 [ms]
[OGL LOG][Proc: 0]p: update_non_local_matrix_data: 0.426 [ms]
[OGL LOG][Proc: 0]p: regenerate_distributed_matrix: 60.35 [ms]
[OGL LOG][Proc: 0]p_matrix: call_update: 60.729 [ms]
[OGL LOG][Proc: 0]p_rhs: call_update: 1.528 [ms]
[OGL LOG][Proc: 0]p: init_precond: 0.043 [ms]
[OGL LOG][StoppingCriterion.H:239] Creating stopping criterion with minIter 1849 frequency 14
[OGL LOG][Proc: 0]p: generate_solver: 0.022 [ms]
[OGL LOG][Proc: 0]p: solve: 3605.1 [ms]
[OGL LOG][Proc: 0]p: copy_x_back: 1.448 [ms]
[OGL LOG][lduLduBase.H:330] 
Statistics:
	Time per iteration: 1170 [mu s]
	Time per residual norm calculation: 191.000000 [mu s]
	Time per iteration and DOF: 0.018281 [ns]
	Retrieve results bandwidth 4.419000 [GByte/s]
[OGL LOG][Proc: 0]p: solve_multi_gpu: 3673.28 [ms]
nonedpcppGKOCG:  Solving for p, Initial residual = 0.915398, Final residual = 8.65057e-05, No Iterations 3081
[INFO] SolveP: 3685.54 [ms]
time step continuity errors : sum local = 5.78602e-08, global = -6.24534e-22, cumulative = 1.3056e-20
[INFO] ContinuityError: 12.227 [ms]
[INFO] CorrectBoundary: 3.02 [ms]
[INFO] PISOStep: 3848.46 [ms]
[INFO] TimeStep: 8533.66 [ms]
ExecutionTime = 154.66 s  ClockTime = 158 s

Time = 0.002125

Courant Number mean: 0.0423543 max: 2.55173
[INFO] MatrixAssemblyU: 68.648 [ms]
DILUPBiCGStab:  Solving for Ux, Initial residual = 0.0893978, Final residual = 0.00497738, No Iterations 5
DILUPBiCGStab:  Solving for Uy, Initial residual = 0.335235, Final residual = 0.0167553, No Iterations 5
DILUPBiCGStab:  Solving for Uz, Initial residual = 0.74365, Final residual = 0.0352391, No Iterations 5
[INFO] MomentumPredictor: 735.743 [ms]
[INFO] MatrixAssemblyPI: 79.242 [ms]
[INFO] AdjustPhi: 12.761 [ms]
[INFO] ConstrainPressure: 0.001 [ms]
[INFO] MatrixAssemblyPII: 24.188 [ms]
[OGL LOG][Proc: 0]: global_index_init: 0.118 [ms]
[OGL LOG][Proc: 0]p_local_coeffs: call_update: 0 [ms]
[OGL LOG][Proc: 0]p_non_local_coeffs: call_update: 0 [ms]
[OGL LOG][Proc: 0]p: update_local_matrix_data: 9.296 [ms]
[OGL LOG][Proc: 0]p: update_non_local_matrix_data: 0.402 [ms]
[OGL LOG][Proc: 0]p: regenerate_distributed_matrix: 58.816 [ms]
[OGL LOG][Proc: 0]p_matrix: call_update: 59.171 [ms]
[OGL LOG][Proc: 0]p_rhs: call_update: 1.724 [ms]
[OGL LOG][Proc: 0]p: init_precond: 0.041 [ms]
[OGL LOG][StoppingCriterion.H:239] Creating stopping criterion with minIter 1848 frequency 14
[OGL LOG][Proc: 0]p: generate_solver: 0.022 [ms]
[OGL LOG][Proc: 0]p: solve: 3612.44 [ms]
[OGL LOG][Proc: 0]p: copy_x_back: 1.383 [ms]
[OGL LOG][lduLduBase.H:330] 
Statistics:
	Time per iteration: 1172 [mu s]
	Time per residual norm calculation: 186.000000 [mu s]
	Time per iteration and DOF: 0.018312 [ns]
	Retrieve results bandwidth 4.627000 [GByte/s]
[OGL LOG][Proc: 0]p: solve_multi_gpu: 3677.17 [ms]
nonedpcppGKOCG:  Solving for p, Initial residual = 0.98191, Final residual = 9.82452e-05, No Iterations 3081
[INFO] SolveP: 3689.61 [ms]
time step continuity errors : sum local = 7.71188e-08, global = 6.83872e-22, cumulative = 1.37399e-20
[INFO] ContinuityError: 13.577 [ms]
[INFO] CorrectBoundary: 0.271 [ms]
[INFO] PISOStep: 3853.54 [ms]
[INFO] MatrixAssemblyPI: 80.167 [ms]
[INFO] AdjustPhi: 12.73 [ms]
[INFO] ConstrainPressure: 0.002 [ms]
[INFO] MatrixAssemblyPII: 24.872 [ms]
[OGL LOG][Proc: 0]: global_index_init: 0.112 [ms]
[OGL LOG][Proc: 0]p_local_coeffs: call_update: 0 [ms]
[OGL LOG][Proc: 0]p_non_local_coeffs: call_update: 0 [ms]
[OGL LOG][Proc: 0]p: update_local_matrix_data: 9.157 [ms]
[OGL LOG][Proc: 0]p: update_non_local_matrix_data: 0.396 [ms]
[OGL LOG][Proc: 0]p: regenerate_distributed_matrix: 59.808 [ms]
[OGL LOG][Proc: 0]p_matrix: call_update: 60.179 [ms]
[OGL LOG][Proc: 0]p_rhs: call_update: 1.84 [ms]
[OGL LOG][Proc: 0]p: init_precond: 0.042 [ms]
[OGL LOG][StoppingCriterion.H:239] Creating stopping criterion with minIter 1848 frequency 14
[OGL LOG][Proc: 0]p: generate_solver: 0.023 [ms]
[OGL LOG][Proc: 0]p: solve: 3603.25 [ms]
[OGL LOG][Proc: 0]p: copy_x_back: 1.452 [ms]
[OGL LOG][lduLduBase.H:330] 
Statistics:
	Time per iteration: 1169 [mu s]
	Time per residual norm calculation: 174.000000 [mu s]
	Time per iteration and DOF: 0.018266 [ns]
	Retrieve results bandwidth 4.407000 [GByte/s]
[OGL LOG][Proc: 0]p: solve_multi_gpu: 3672.25 [ms]
nonedpcppGKOCG:  Solving for p, Initial residual = 0.920425, Final residual = 9.2149e-05, No Iterations 3081
[INFO] SolveP: 3684.34 [ms]
time step continuity errors : sum local = 7.27134e-08, global = 3.69659e-22, cumulative = 1.41096e-20
[INFO] ContinuityError: 12.869 [ms]
[INFO] CorrectBoundary: 0.388 [ms]
[INFO] PISOStep: 3844.74 [ms]
[INFO] TimeStep: 8514.7 [ms]
ExecutionTime = 163.18 s  ClockTime = 166 s

Time = 0.00225

Courant Number mean: 0.0433367 max: 2.86031
[INFO] MatrixAssemblyU: 68.618 [ms]
DILUPBiCGStab:  Solving for Ux, Initial residual = 0.10549, Final residual = 0.00558418, No Iterations 5
DILUPBiCGStab:  Solving for Uy, Initial residual = 0.357754, Final residual = 0.01697, No Iterations 5
DILUPBiCGStab:  Solving for Uz, Initial residual = 0.745941, Final residual = 0.0350231, No Iterations 5
[INFO] MomentumPredictor: 753.497 [ms]
[INFO] MatrixAssemblyPI: 79.278 [ms]
[INFO] AdjustPhi: 13.628 [ms]
[INFO] ConstrainPressure: 0.002 [ms]
[INFO] MatrixAssemblyPII: 24.265 [ms]
[OGL LOG][Proc: 0]: global_index_init: 0.108 [ms]
[OGL LOG][Proc: 0]p_local_coeffs: call_update: 0 [ms]
[OGL LOG][Proc: 0]p_non_local_coeffs: call_update: 0 [ms]
[OGL LOG][Proc: 0]p: update_local_matrix_data: 9.401 [ms]
[OGL LOG][Proc: 0]p: update_non_local_matrix_data: 0.437 [ms]
[OGL LOG][Proc: 0]p: regenerate_distributed_matrix: 57.832 [ms]
[OGL LOG][Proc: 0]p_matrix: call_update: 58.327 [ms]
[OGL LOG][Proc: 0]p_rhs: call_update: 1.52 [ms]
[OGL LOG][Proc: 0]p: init_precond: 0.041 [ms]
[OGL LOG][StoppingCriterion.H:239] Creating stopping criterion with minIter 1848 frequency 14
[OGL LOG][Proc: 0]p: generate_solver: 0.021 [ms]
[OGL LOG][Proc: 0]p: solve: 3578.89 [ms]
[OGL LOG][Proc: 0]p: copy_x_back: 1.434 [ms]
[OGL LOG][lduLduBase.H:330] 
Statistics:
	Time per iteration: 1166 [mu s]
	Time per residual norm calculation: 177.000000 [mu s]
	Time per iteration and DOF: 0.018219 [ns]
	Retrieve results bandwidth 4.463000 [GByte/s]
[OGL LOG][Proc: 0]p: solve_multi_gpu: 3643.41 [ms]
nonedpcppGKOCG:  Solving for p, Initial residual = 0.983118, Final residual = 9.55953e-05, No Iterations 3067
[INFO] SolveP: 3655.83 [ms]
time step continuity errors : sum local = 8.93809e-08, global = 4.14831e-22, cumulative = 1.45244e-20
[INFO] ContinuityError: 12.038 [ms]
[INFO] CorrectBoundary: 0.643 [ms]
[INFO] PISOStep: 3817.17 [ms]
[INFO] MatrixAssemblyPI: 79.491 [ms]
[INFO] AdjustPhi: 14.649 [ms]
[INFO] ConstrainPressure: 0.002 [ms]
[INFO] MatrixAssemblyPII: 24.921 [ms]
[OGL LOG][Proc: 0]: global_index_init: 0.126 [ms]
[OGL LOG][Proc: 0]p_local_coeffs: call_update: 0 [ms]
[OGL LOG][Proc: 0]p_non_local_coeffs: call_update: 0 [ms]
[OGL LOG][Proc: 0]p: update_local_matrix_data: 9.189 [ms]
[OGL LOG][Proc: 0]p: update_non_local_matrix_data: 0.446 [ms]
[OGL LOG][Proc: 0]p: regenerate_distributed_matrix: 58.356 [ms]
[OGL LOG][Proc: 0]p_matrix: call_update: 58.721 [ms]
[OGL LOG][Proc: 0]p_rhs: call_update: 1.635 [ms]
[OGL LOG][Proc: 0]p: init_precond: 0.042 [ms]
[OGL LOG][StoppingCriterion.H:239] Creating stopping criterion with minIter 1840 frequency 14
[OGL LOG][Proc: 0]p: generate_solver: 0.022 [ms]
[OGL LOG][Proc: 0]p: solve: 3606.76 [ms]
[OGL LOG][Proc: 0]p: copy_x_back: 2.269 [ms]
[OGL LOG][lduLduBase.H:330] 
Statistics:
	Time per iteration: 1170 [mu s]
	Time per residual norm calculation: 180.000000 [mu s]
	Time per iteration and DOF: 0.018281 [ns]
	Retrieve results bandwidth 2.820000 [GByte/s]
[OGL LOG][Proc: 0]p: solve_multi_gpu: 3675.1 [ms]
nonedpcppGKOCG:  Solving for p, Initial residual = 0.917435, Final residual = 8.98596e-05, No Iterations 3081
[INFO] SolveP: 3687.41 [ms]
time step continuity errors : sum local = 8.4825e-08, global = 7.19337e-22, cumulative = 1.52437e-20
[INFO] ContinuityError: 11.919 [ms]
[INFO] CorrectBoundary: 3.563 [ms]
[INFO] PISOStep: 3852.77 [ms]
[INFO] TimeStep: 8507.46 [ms]
ExecutionTime = 171.68 s  ClockTime = 175 s

Time = 0.002375

Courant Number mean: 0.0449566 max: 3.96245
[INFO] MatrixAssemblyU: 69.008 [ms]
DILUPBiCGStab:  Solving for Ux, Initial residual = 0.11908, Final residual = 0.00603614, No Iterations 5
DILUPBiCGStab:  Solving for Uy, Initial residual = 0.393836, Final residual = 0.0185405, No Iterations 5
DILUPBiCGStab:  Solving for Uz, Initial residual = 0.749575, Final residual = 0.0349026, No Iterations 5
[INFO] MomentumPredictor: 749.686 [ms]
[INFO] MatrixAssemblyPI: 79.238 [ms]
[INFO] AdjustPhi: 13.852 [ms]
[INFO] ConstrainPressure: 0.002 [ms]
[INFO] MatrixAssemblyPII: 24.235 [ms]
[OGL LOG][Proc: 0]: global_index_init: 0.125 [ms]
[OGL LOG][Proc: 0]p_local_coeffs: call_update: 0 [ms]
[OGL LOG][Proc: 0]p_non_local_coeffs: call_update: 0 [ms]
[OGL LOG][Proc: 0]p: update_local_matrix_data: 9.085 [ms]
[OGL LOG][Proc: 0]p: update_non_local_matrix_data: 0.44 [ms]
[OGL LOG][Proc: 0]p: regenerate_distributed_matrix: 59.569 [ms]
[OGL LOG][Proc: 0]p_matrix: call_update: 59.944 [ms]
[OGL LOG][Proc: 0]p_rhs: call_update: 1.989 [ms]
[OGL LOG][Proc: 0]p: init_precond: 0.042 [ms]
[OGL LOG][StoppingCriterion.H:239] Creating stopping criterion with minIter 1848 frequency 14
[OGL LOG][Proc: 0]p: generate_solver: 0.022 [ms]
[OGL LOG][Proc: 0]p: solve: 3612.37 [ms]
[OGL LOG][Proc: 0]p: copy_x_back: 1.439 [ms]
[OGL LOG][lduLduBase.H:330] 
Statistics:
	Time per iteration: 1167 [mu s]
	Time per residual norm calculation: 168.000000 [mu s]
	Time per iteration and DOF: 0.018234 [ns]
	Retrieve results bandwidth 4.447000 [GByte/s]
[OGL LOG][Proc: 0]p: solve_multi_gpu: 3679.1 [ms]
nonedpcppGKOCG:  Solving for p, Initial residual = 0.983539, Final residual = 7.86835e-05, No Iterations 3095
[INFO] SolveP: 3691.26 [ms]
time step continuity errors : sum local = 8.78941e-08, global = 5.11818e-23, cumulative = 1.52949e-20
[INFO] ContinuityError: 13.17 [ms]
[INFO] CorrectBoundary: 0.349 [ms]
[INFO] PISOStep: 3851.33 [ms]
[INFO] MatrixAssemblyPI: 77.488 [ms]
[INFO] AdjustPhi: 17.262 [ms]
[INFO] ConstrainPressure: 0.002 [ms]
[INFO] MatrixAssemblyPII: 25.062 [ms]
[OGL LOG][Proc: 0]: global_index_init: 0.117 [ms]
[OGL LOG][Proc: 0]p_local_coeffs: call_update: 0 [ms]
[OGL LOG][Proc: 0]p_non_local_coeffs: call_update: 0 [ms]
[OGL LOG][Proc: 0]p: update_local_matrix_data: 9.192 [ms]
[OGL LOG][Proc: 0]p: update_non_local_matrix_data: 0.403 [ms]
[OGL LOG][Proc: 0]p: regenerate_distributed_matrix: 58.157 [ms]
[OGL LOG][Proc: 0]p_matrix: call_update: 58.537 [ms]
[OGL LOG][Proc: 0]p_rhs: call_update: 1.715 [ms]
[OGL LOG][Proc: 0]p: init_precond: 0.041 [ms]
[OGL LOG][StoppingCriterion.H:239] Creating stopping criterion with minIter 1857 frequency 14
[OGL LOG][Proc: 0]p: generate_solver: 0.022 [ms]
[OGL LOG][Proc: 0]p: solve: 3598.43 [ms]
[OGL LOG][Proc: 0]p: copy_x_back: 1.389 [ms]
[OGL LOG][lduLduBase.H:330] 
Statistics:
	Time per iteration: 1167 [mu s]
	Time per residual norm calculation: 167.000000 [mu s]
	Time per iteration and DOF: 0.018234 [ns]
	Retrieve results bandwidth 4.607000 [GByte/s]
[OGL LOG][Proc: 0]p: solve_multi_gpu: 3663.85 [ms]
nonedpcppGKOCG:  Solving for p, Initial residual = 0.92065, Final residual = 9.72622e-05, No Iterations 3081
[INFO] SolveP: 3677.48 [ms]
time step continuity errors : sum local = 1.09337e-07, global = 1.22624e-21, cumulative = 1.65212e-20
[INFO] ContinuityError: 13.135 [ms]
[INFO] CorrectBoundary: 0.276 [ms]
[INFO] PISOStep: 3839.55 [ms]
[INFO] TimeStep: 8521.99 [ms]
ExecutionTime = 180.21 s  ClockTime = 183 s

Time = 0.0025

Courant Number mean: 0.0460467 max: 4.70695
[INFO] MatrixAssemblyU: 68.544 [ms]
DILUPBiCGStab:  Solving for Ux, Initial residual = 0.141719, Final residual = 0.00691119, No Iterations 5
DILUPBiCGStab:  Solving for Uy, Initial residual = 0.420927, Final residual = 0.0191036, No Iterations 5
DILUPBiCGStab:  Solving for Uz, Initial residual = 0.750836, Final residual = 0.0346781, No Iterations 5
[INFO] MomentumPredictor: 761.315 [ms]
[INFO] MatrixAssemblyPI: 81.1 [ms]
[INFO] AdjustPhi: 11.546 [ms]
[INFO] ConstrainPressure: 0.002 [ms]
[INFO] MatrixAssemblyPII: 24.684 [ms]
[OGL LOG][Proc: 0]: global_index_init: 0.156 [ms]
[OGL LOG][Proc: 0]p_local_coeffs: call_update: 0 [ms]
[OGL LOG][Proc: 0]p_non_local_coeffs: call_update: 0 [ms]
[OGL LOG][Proc: 0]p: update_local_matrix_data: 9.312 [ms]
[OGL LOG][Proc: 0]p: update_non_local_matrix_data: 0.405 [ms]
[OGL LOG][Proc: 0]p: regenerate_distributed_matrix: 57.259 [ms]
[OGL LOG][Proc: 0]p_matrix: call_update: 57.614 [ms]
[OGL LOG][Proc: 0]p_rhs: call_update: 1.965 [ms]
[OGL LOG][Proc: 0]p: init_precond: 0.031 [ms]
[OGL LOG][StoppingCriterion.H:239] Creating stopping criterion with minIter 1848 frequency 14
[OGL LOG][Proc: 0]p: generate_solver: 0.015 [ms]
[OGL LOG][Proc: 0]p: solve: 3627.48 [ms]
[OGL LOG][Proc: 0]p: copy_x_back: 1.41 [ms]
[OGL LOG][lduLduBase.H:330] 
Statistics:
	Time per iteration: 1172 [mu s]
	Time per residual norm calculation: 186.000000 [mu s]
	Time per iteration and DOF: 0.018312 [ns]
	Retrieve results bandwidth 4.539000 [GByte/s]
[OGL LOG][Proc: 0]p: solve_multi_gpu: 3691.58 [ms]
nonedpcppGKOCG:  Solving for p, Initial residual = 0.984423, Final residual = 8.38864e-05, No Iterations 3095
[INFO] SolveP: 3703.91 [ms]
time step continuity errors : sum local = 1.12339e-07, global = -1.12838e-21, cumulative = 1.53928e-20
[INFO] ContinuityError: 13.345 [ms]
[INFO] CorrectBoundary: 0.689 [ms]
[INFO] PISOStep: 3867.2 [ms]
[INFO] MatrixAssemblyPI: 78.388 [ms]
[INFO] AdjustPhi: 14.144 [ms]
[INFO] ConstrainPressure: 0.002 [ms]
[INFO] MatrixAssemblyPII: 24.987 [ms]
[OGL LOG][Proc: 0]: global_index_init: 0.073 [ms]
[OGL LOG][Proc: 0]p_local_coeffs: call_update: 0 [ms]
[OGL LOG][Proc: 0]p_non_local_coeffs: call_update: 0 [ms]
[OGL LOG][Proc: 0]p: update_local_matrix_data: 9.205 [ms]
[OGL LOG][Proc: 0]p: update_non_local_matrix_data: 0.397 [ms]
[OGL LOG][Proc: 0]p: regenerate_distributed_matrix: 59.938 [ms]
[OGL LOG][Proc: 0]p_matrix: call_update: 60.855 [ms]
[OGL LOG][Proc: 0]p_rhs: call_update: 0.879 [ms]
[OGL LOG][Proc: 0]p: init_precond: 0.04 [ms]
[OGL LOG][StoppingCriterion.H:239] Creating stopping criterion with minIter 1857 frequency 14
[OGL LOG][Proc: 0]p: generate_solver: 0.021 [ms]
[OGL LOG][Proc: 0]p: solve: 3611.57 [ms]
[OGL LOG][Proc: 0]p: copy_x_back: 1.438 [ms]
[OGL LOG][lduLduBase.H:330] 
Statistics:
	Time per iteration: 1166 [mu s]
	Time per residual norm calculation: 183.000000 [mu s]
	Time per iteration and DOF: 0.018219 [ns]
	Retrieve results bandwidth 4.450000 [GByte/s]
[OGL LOG][Proc: 0]p: solve_multi_gpu: 3678.71 [ms]
nonedpcppGKOCG:  Solving for p, Initial residual = 0.918768, Final residual = 7.79994e-05, No Iterations 3095
[INFO] SolveP: 3691.72 [ms]
time step continuity errors : sum local = 1.05432e-07, global = 9.10571e-22, cumulative = 1.63034e-20
[INFO] ContinuityError: 14.857 [ms]
[INFO] CorrectBoundary: 0.286 [ms]
[INFO] PISOStep: 3854.13 [ms]
[INFO] TimeStep: 8567.59 [ms]
ExecutionTime = 188.77 s  ClockTime = 192 s

End

Finalising parallel run
