/*---------------------------------------------------------------------------*\
| =========                 |                                                 |
| \\      /  F ield         | OpenFOAM: The Open Source CFD Toolbox           |
|  \\    /   O peration     | Version:  v2106                                 |
|   \\  /    A nd           | Website:  www.openfoam.com                      |
|    \\/     M anipulation  |                                                 |
\*---------------------------------------------------------------------------*/
Build  : f815a12bba-20210902 OPENFOAM=2106
Arch   : "LSB;label=32;scalar=64"
Exec   : icoFoam -parallel -case /home/greole/data/code/micro_benchmarks/LidDrivenCavity3D/workspace/b5e6bd59879be8f712d98c084297ccea/case
Date   : Mar 06 2023
Time   : 01:17:10
Host   : nla-gpu2.ianm.kit.edu
PID    : 2121892
I/O    : uncollated
Case   : /home/greole/data/code/micro_benchmarks/LidDrivenCavity3D/workspace/b5e6bd59879be8f712d98c084297ccea/case
nProcs : 16
Hosts  :
(
    (nla-gpu2.ianm.kit.edu 16)
)
Pstream initialized with:
    floatTransfer      : 0
    nProcsSimpleSum    : 0
    commsType          : nonBlocking
    polling iterations : 0
trapFpe: Floating point exception trapping enabled (FOAM_SIGFPE).
fileModificationChecking : Monitoring run-time modified files using timeStampMaster (fileModificationSkew 5, maxFileModificationPolls 20)
allowSystemOperations : Allowing user-supplied system call operations

// * * * * * * * * * * * * * * * * * * * * * * * * * * * * * * * * * * * * * //
Create time

--> FOAM Warning : 
    From virtual void Foam::Time::readDict()
    in file db/Time/TimeIO.C at line 411
    Reading "/home/greole/data/code/micro_benchmarks/LidDrivenCavity3D/workspace/b5e6bd59879be8f712d98c084297ccea/case/system/controlDict" at line 17 to 47
    Disabled binary format compression (inefficient/ineffective)
Create mesh for time = 0


PISO: Operating solver in PISO mode

Reading transportProperties

Reading field p

Reading field U

Reading/calculating face flux field phi


Starting time loop

Time = 0.000125

Courant Number mean: 8.02505e-18 max: 4.85723e-14
[INFO] MatrixAssemblyU: 1121.73 [ms]
DILUPBiCGStab:  Solving for Ux, Initial residual = 1, Final residual = 0.0215184, No Iterations 5
DILUPBiCGStab:  Solving for Uy:  solution singularity
DILUPBiCGStab:  Solving for Uz:  solution singularity
linear solve U 3747.24 [ms]
[INFO] MomentumPredictor: 4149.52 [ms]
[INFO] MatrixAssemblyPI: 1189.68 [ms]
[INFO] AdjustPhi: 62.028 [ms]
[INFO] ConstrainPressure: 0.006 [ms]
[INFO] MatrixAssemblyPII: 335.856 [ms]
[OGL LOG][lduLduBase.H:121] Initialising OGL
	OGL commit:  84e53c6+
	Branch: HEAD 
	Build type: Debug
	Ginkgo version: 1.5.0 ( develop)
	Ginkgo commit: 6b441077b
	MPI is GPU aware: 0
	Forces host buffer based communication: 1
	CPU ranks per GPU: 2
	Matrix format: Coo
	End OGL_INFO
[OGL LOG][Proc: 0]: global_index_init: 69.878 [ms]
[OGL LOG][Proc: 0]p_local_cols: call_init: 0.31 [ms]
[OGL LOG][Proc: 0]p_local_rows: call_init: 0.017 [ms]
[OGL LOG][Proc: 0]p_local_ldu_map: call_init: 0.007 [ms]
[OGL LOG][Proc: 0]p_local_coeffs: call_init: 0.115 [ms]
[OGL LOG][Proc: 0]p_non_local_cols: call_init: 0.006 [ms]
[OGL LOG][Proc: 0]p_non_local_rows: call_init: 0.004 [ms]
[OGL LOG][Proc: 0]p_non_local_ldu_map: call_init: 0.003 [ms]
[OGL LOG][Proc: 0]p_non_local_coeffs: call_init: 0.005 [ms]
[OGL LOG][Proc: 0]p: init_local_sparsity_pattern: 5612.24 [ms]
[OGL LOG][Proc: 0]p: init_non_local_sparsity_pattern: 949.643 [ms]
[OGL LOG][Proc: 0]p: update_local_matrix_data: 220.327 [ms]
[OGL LOG][Proc: 0]p: update_non_local_matrix_data: 371.362 [ms]
[OGL LOG][Proc: 0]device_partition: call_init: 39.883 [ms]
[OGL LOG][Proc: 0]local_scatter_map: call_init: 36.681 [ms]
[OGL LOG][Proc: 0]non_local_scatter_map: call_init: 0.116 [ms]
[OGL LOG][Proc: 0]sorting_idx: call_init: 17.137 [ms]
[OGL LOG][Proc: 0]send_sizes: call_init: 0.061 [ms]
[OGL LOG][Proc: 0]send_offs: call_init: 0.006 [ms]
[OGL LOG][Proc: 0]recv_sizes: call_init: 0.006 [ms]
[OGL LOG][Proc: 0]recv_offs: call_init: 0.006 [ms]
[OGL LOG][Proc: 0]p_matrix: call_init: 10217.8 [ms]
[OGL LOG][Proc: 0]p_rhs: call_init: 1080.61 [ms]
[OGL LOG][Proc: 0]p_solution: call_init: 63.365 [ms]
[OGL LOG][Proc: 0]p: init_precond: 0.18 [ms]
[OGL LOG][StoppingCriterion.H:372] Creating stopping criterion with minIter 0 frequency 1
[OGL LOG][Proc: 0]p: generate_solver: 0.417 [ms]
[OGL LOG][Proc: 0]p: solve: 16442.3 [ms]
[OGL LOG][Proc: 0]p: copy_x_back: 109.639 [ms]
[OGL LOG][lduLduBase.H:319] 
Statistics:
	Time per iteration: 5478 [mu s]
	Time per residual norm calculation: 5208.000000 [mu s]
	Time per iteration and DOF: 0.085594 [ns]
	Retrieve results bandwith 0.583000 [GByte/s]
[OGL LOG][Proc: 0]p: solve_multi_gpu: 27956.6 [ms]
nonehipGKOCG:  Solving for p, Initial residual = 1, Final residual = 0.00227274, No Iterations 3001
linear solve p 35925.6 [ms]
[INFO] SolveP: 35925.7 [ms]
time step continuity errors : sum local = 5.76534e-08, global = -2.51166e-22, cumulative = -2.51166e-22
[INFO] ContinuityError: 133.299 [ms]
[INFO] CorrectBoundary: 3.678 [ms]
[INFO] PISOStep: 38046.7 [ms]
[INFO] MatrixAssemblyPI: 1124.81 [ms]
[INFO] AdjustPhi: 78.185 [ms]
[INFO] ConstrainPressure: 0.004 [ms]
[INFO] MatrixAssemblyPII: 337.33 [ms]
[OGL LOG][Proc: 0]: global_index_init: 0.215 [ms]
[OGL LOG][Proc: 0]p_local_coeffs: call_update: 0.001 [ms]
[OGL LOG][Proc: 0]p_non_local_coeffs: call_update: 0 [ms]
[OGL LOG][Proc: 0]p: update_local_matrix_data: 254.973 [ms]
[OGL LOG][Proc: 0]p: update_non_local_matrix_data: 4.343 [ms]
[OGL LOG][Proc: 0]p: update_build_repartitioner: 83.98 [ms]
[OGL LOG][Proc: 0]p: update_repartitioned_existing: 405.803 [ms]
[OGL LOG][Proc: 0]p: update_offload_local_values: 57.155 [ms]
[OGL LOG][Proc: 0]p: update_offload_non_local_values: 0.295 [ms]
[OGL LOG][Proc: 0]p_matrix: call_update: 549.063 [ms]
[OGL LOG][Proc: 0]p_rhs: call_update: 407.152 [ms]
[OGL LOG][Proc: 0]p: init_precond: 0.061 [ms]
[OGL LOG][StoppingCriterion.H:372] Creating stopping criterion with minIter 1800 frequency 34
[OGL LOG][Proc: 0]p: generate_solver: 0.02 [ms]
[OGL LOG][Proc: 0]p: solve: 16257.6 [ms]
[OGL LOG][Proc: 0]p: copy_x_back: 101.941 [ms]
[OGL LOG][lduLduBase.H:319] 
Statistics:
	Time per iteration: 4979 [mu s]
	Time per residual norm calculation: 446.000000 [mu s]
	Time per iteration and DOF: 0.077797 [ns]
	Retrieve results bandwith 0.627000 [GByte/s]
[OGL LOG][Proc: 0]p: solve_multi_gpu: 17316.9 [ms]
nonehipGKOCG:  Solving for p, Initial residual = 0.822127, Final residual = 7.02688e-05, No Iterations 3265
linear solve p 17614.3 [ms]
[INFO] SolveP: 17614.3 [ms]
time step continuity errors : sum local = 2.15273e-09, global = 3.41398e-22, cumulative = 9.02322e-23
[INFO] ContinuityError: 129.078 [ms]
[INFO] CorrectBoundary: 2.588 [ms]
[INFO] PISOStep: 19690.9 [ms]
[INFO] TimeStep: 63135.5 [ms]
ExecutionTime = 65.96 s  ClockTime = 67 s

Time = 0.00025

Courant Number mean: 0.0108529 max: 0.437705
[INFO] MatrixAssemblyU: 1051.36 [ms]
DILUPBiCGStab:  Solving for Ux, Initial residual = 0.108169, Final residual = 0.0134444, No Iterations 5
DILUPBiCGStab:  Solving for Uy, Initial residual = 0.484653, Final residual = 0.0521736, No Iterations 5
DILUPBiCGStab:  Solving for Uz, Initial residual = 0.989763, Final residual = 0.119397, No Iterations 5
linear solve U 7607.7 [ms]
[INFO] MomentumPredictor: 7997.09 [ms]
[INFO] MatrixAssemblyPI: 1183.12 [ms]
[INFO] AdjustPhi: 66.224 [ms]
[INFO] ConstrainPressure: 0.003 [ms]
[INFO] MatrixAssemblyPII: 333.565 [ms]
[OGL LOG][Proc: 0]: global_index_init: 0.275 [ms]
[OGL LOG][Proc: 0]p_local_coeffs: call_update: 0 [ms]
[OGL LOG][Proc: 0]p_non_local_coeffs: call_update: 0 [ms]
[OGL LOG][Proc: 0]p: update_local_matrix_data: 260.206 [ms]
[OGL LOG][Proc: 0]p: update_non_local_matrix_data: 3.706 [ms]
[OGL LOG][Proc: 0]p: update_build_repartitioner: 80.665 [ms]
[OGL LOG][Proc: 0]p: update_repartitioned_existing: 406.963 [ms]
[OGL LOG][Proc: 0]p: update_offload_local_values: 58.139 [ms]
[OGL LOG][Proc: 0]p: update_offload_non_local_values: 0.237 [ms]
[OGL LOG][Proc: 0]p_matrix: call_update: 546.443 [ms]
[OGL LOG][Proc: 0]p_rhs: call_update: 386.051 [ms]
[OGL LOG][Proc: 0]p: init_precond: 0.042 [ms]
[OGL LOG][StoppingCriterion.H:372] Creating stopping criterion with minIter 1959 frequency 10
[OGL LOG][Proc: 0]p: generate_solver: 0.03 [ms]
[OGL LOG][Proc: 0]p: solve: 15028.4 [ms]
[OGL LOG][Proc: 0]p: copy_x_back: 101.032 [ms]
[OGL LOG][lduLduBase.H:319] 
Statistics:
	Time per iteration: 5007 [mu s]
	Time per residual norm calculation: 422.000000 [mu s]
	Time per iteration and DOF: 0.078234 [ns]
	Retrieve results bandwith 0.633000 [GByte/s]
[OGL LOG][Proc: 0]p: solve_multi_gpu: 16063 [ms]
nonehipGKOCG:  Solving for p, Initial residual = 0.906459, Final residual = 0.00121759, No Iterations 3001
linear solve p 16366.7 [ms]
[INFO] SolveP: 16366.8 [ms]
time step continuity errors : sum local = 8.58702e-08, global = 5.52608e-22, cumulative = 6.42841e-22
[INFO] ContinuityError: 120.44 [ms]
[INFO] CorrectBoundary: 3.875 [ms]
[INFO] PISOStep: 18477.5 [ms]
[INFO] MatrixAssemblyPI: 1126.63 [ms]
[INFO] AdjustPhi: 68.559 [ms]
[INFO] ConstrainPressure: 0.004 [ms]
[INFO] MatrixAssemblyPII: 328.333 [ms]
[OGL LOG][Proc: 0]: global_index_init: 0.29 [ms]
[OGL LOG][Proc: 0]p_local_coeffs: call_update: 0 [ms]
[OGL LOG][Proc: 0]p_non_local_coeffs: call_update: 0 [ms]
[OGL LOG][Proc: 0]p: update_local_matrix_data: 261.685 [ms]
[OGL LOG][Proc: 0]p: update_non_local_matrix_data: 3.832 [ms]
[OGL LOG][Proc: 0]p: update_build_repartitioner: 81.344 [ms]
[OGL LOG][Proc: 0]p: update_repartitioned_existing: 406.248 [ms]
[OGL LOG][Proc: 0]p: update_offload_local_values: 55.068 [ms]
[OGL LOG][Proc: 0]p: update_offload_non_local_values: 0.295 [ms]
[OGL LOG][Proc: 0]p_matrix: call_update: 543.384 [ms]
[OGL LOG][Proc: 0]p_rhs: call_update: 381.532 [ms]
[OGL LOG][Proc: 0]p: init_precond: 0.038 [ms]
[OGL LOG][StoppingCriterion.H:372] Creating stopping criterion with minIter 1800 frequency 10
[OGL LOG][Proc: 0]p: generate_solver: 0.021 [ms]
[OGL LOG][Proc: 0]p: solve: 15064.7 [ms]
[OGL LOG][Proc: 0]p: copy_x_back: 104.006 [ms]
[OGL LOG][lduLduBase.H:319] 
Statistics:
	Time per iteration: 5019 [mu s]
	Time per residual norm calculation: 445.000000 [mu s]
	Time per iteration and DOF: 0.078422 [ns]
	Retrieve results bandwith 0.615000 [GByte/s]
[OGL LOG][Proc: 0]p: solve_multi_gpu: 16094.6 [ms]
nonehipGKOCG:  Solving for p, Initial residual = 0.857623, Final residual = 0.00112267, No Iterations 3001
linear solve p 16397.9 [ms]
[INFO] SolveP: 16398 [ms]
time step continuity errors : sum local = 8.06443e-08, global = 3.58945e-22, cumulative = 1.00179e-21
[INFO] ContinuityError: 136.363 [ms]
[INFO] CorrectBoundary: 2.865 [ms]
[INFO] PISOStep: 18465.6 [ms]
[INFO] TimeStep: 46123.4 [ms]
ExecutionTime = 111.81 s  ClockTime = 113 s

Time = 0.000375

Courant Number mean: 0.016946 max: 0.511447
[INFO] MatrixAssemblyU: 1051.45 [ms]
DILUPBiCGStab:  Solving for Ux, Initial residual = 0.0536928, Final residual = 0.00543611, No Iterations 5
DILUPBiCGStab:  Solving for Uy, Initial residual = 0.261735, Final residual = 0.0263018, No Iterations 5
DILUPBiCGStab:  Solving for Uz, Initial residual = 0.874166, Final residual = 0.091985, No Iterations 5
linear solve U 7516.7 [ms]
[INFO] MomentumPredictor: 7903.4 [ms]
[INFO] MatrixAssemblyPI: 1171.39 [ms]
[INFO] AdjustPhi: 58.699 [ms]
[INFO] ConstrainPressure: 0.003 [ms]
[INFO] MatrixAssemblyPII: 322.394 [ms]
[OGL LOG][Proc: 0]: global_index_init: 0.018 [ms]
[OGL LOG][Proc: 0]p_local_coeffs: call_update: 0 [ms]
[OGL LOG][Proc: 0]p_non_local_coeffs: call_update: 0 [ms]
[OGL LOG][Proc: 0]p: update_local_matrix_data: 261.43 [ms]
[OGL LOG][Proc: 0]p: update_non_local_matrix_data: 3.33 [ms]
[OGL LOG][Proc: 0]p: update_build_repartitioner: 73.904 [ms]
[OGL LOG][Proc: 0]p: update_repartitioned_existing: 407.301 [ms]
[OGL LOG][Proc: 0]p: update_offload_local_values: 59.242 [ms]
[OGL LOG][Proc: 0]p: update_offload_non_local_values: 0.241 [ms]
[OGL LOG][Proc: 0]p_matrix: call_update: 541.117 [ms]
[OGL LOG][Proc: 0]p_rhs: call_update: 343.599 [ms]
[OGL LOG][Proc: 0]p: init_precond: 0.033 [ms]
[OGL LOG][StoppingCriterion.H:372] Creating stopping criterion with minIter 1800 frequency 10
[OGL LOG][Proc: 0]p: generate_solver: 0.022 [ms]
[OGL LOG][Proc: 0]p: solve: 9118.59 [ms]
[OGL LOG][Proc: 0]p: copy_x_back: 106.924 [ms]
[OGL LOG][lduLduBase.H:319] 
Statistics:
	Time per iteration: 5063 [mu s]
	Time per residual norm calculation: 450.000000 [mu s]
	Time per iteration and DOF: 0.079109 [ns]
	Retrieve results bandwith 0.598000 [GByte/s]
[OGL LOG][Proc: 0]p: solve_multi_gpu: 10111.3 [ms]
nonehipGKOCG:  Solving for p, Initial residual = 0.941527, Final residual = 2.12281e-05, No Iterations 1801
linear solve p 10419.4 [ms]
[INFO] SolveP: 10419.5 [ms]
time step continuity errors : sum local = 1.91789e-09, global = 1.28604e-22, cumulative = 1.13039e-21
[INFO] ContinuityError: 117.33 [ms]
[INFO] CorrectBoundary: 2.681 [ms]
[INFO] PISOStep: 12494.5 [ms]
[INFO] MatrixAssemblyPI: 1116.71 [ms]
[INFO] AdjustPhi: 71.235 [ms]
[INFO] ConstrainPressure: 0.004 [ms]
[INFO] MatrixAssemblyPII: 329.737 [ms]
[OGL LOG][Proc: 0]: global_index_init: 0.067 [ms]
[OGL LOG][Proc: 0]p_local_coeffs: call_update: 0 [ms]
[OGL LOG][Proc: 0]p_non_local_coeffs: call_update: 0 [ms]
[OGL LOG][Proc: 0]p: update_local_matrix_data: 261.324 [ms]
[OGL LOG][Proc: 0]p: update_non_local_matrix_data: 3.174 [ms]
[OGL LOG][Proc: 0]p: update_build_repartitioner: 42.939 [ms]
[OGL LOG][Proc: 0]p: update_repartitioned_existing: 407.552 [ms]
[OGL LOG][Proc: 0]p: update_offload_local_values: 51.983 [ms]
[OGL LOG][Proc: 0]p: update_offload_non_local_values: 0.266 [ms]
[OGL LOG][Proc: 0]p_matrix: call_update: 503.189 [ms]
[OGL LOG][Proc: 0]p_rhs: call_update: 374.709 [ms]
[OGL LOG][Proc: 0]p: init_precond: 0.051 [ms]
[OGL LOG][StoppingCriterion.H:372] Creating stopping criterion with minIter 1080 frequency 8
[OGL LOG][Proc: 0]p: generate_solver: 0.029 [ms]
[OGL LOG][Proc: 0]p: solve: 8676.6 [ms]
[OGL LOG][Proc: 0]p: copy_x_back: 101.754 [ms]
[OGL LOG][lduLduBase.H:319] 
Statistics:
	Time per iteration: 5112 [mu s]
	Time per residual norm calculation: 436.000000 [mu s]
	Time per iteration and DOF: 0.079875 [ns]
	Retrieve results bandwith 0.628000 [GByte/s]
[OGL LOG][Proc: 0]p: solve_multi_gpu: 9657.24 [ms]
nonehipGKOCG:  Solving for p, Initial residual = 0.909859, Final residual = 9.96441e-05, No Iterations 1697
linear solve p 9961.04 [ms]
[INFO] SolveP: 9961.11 [ms]
time step continuity errors : sum local = 8.91151e-09, global = 3.48495e-22, cumulative = 1.47888e-21
[INFO] ContinuityError: 114.767 [ms]
[INFO] CorrectBoundary: 4.134 [ms]
[INFO] PISOStep: 12001.3 [ms]
[INFO] TimeStep: 33599.2 [ms]
ExecutionTime = 145.19 s  ClockTime = 146 s

Time = 0.0005

Courant Number mean: 0.0205558 max: 0.477599
[INFO] MatrixAssemblyU: 1049.64 [ms]
DILUPBiCGStab:  Solving for Ux, Initial residual = 0.0416368, Final residual = 0.00504239, No Iterations 5
DILUPBiCGStab:  Solving for Uy, Initial residual = 0.213889, Final residual = 0.0241434, No Iterations 5
DILUPBiCGStab:  Solving for Uz, Initial residual = 0.784283, Final residual = 0.0629493, No Iterations 5
linear solve U 7528.4 [ms]
[INFO] MomentumPredictor: 7914.48 [ms]
[INFO] MatrixAssemblyPI: 1144.84 [ms]
[INFO] AdjustPhi: 101.404 [ms]
[INFO] ConstrainPressure: 0.003 [ms]
[INFO] MatrixAssemblyPII: 326.93 [ms]
[OGL LOG][Proc: 0]: global_index_init: 0.248 [ms]
[OGL LOG][Proc: 0]p_local_coeffs: call_update: 0 [ms]
[OGL LOG][Proc: 0]p_non_local_coeffs: call_update: 0 [ms]
[OGL LOG][Proc: 0]p: update_local_matrix_data: 259.141 [ms]
[OGL LOG][Proc: 0]p: update_non_local_matrix_data: 3.296 [ms]
[OGL LOG][Proc: 0]p: update_build_repartitioner: 81.852 [ms]
[OGL LOG][Proc: 0]p: update_repartitioned_existing: 406.476 [ms]
[OGL LOG][Proc: 0]p: update_offload_local_values: 53.887 [ms]
[OGL LOG][Proc: 0]p: update_offload_non_local_values: 0.321 [ms]
[OGL LOG][Proc: 0]p_matrix: call_update: 543.112 [ms]
[OGL LOG][Proc: 0]p_rhs: call_update: 350.699 [ms]
[OGL LOG][Proc: 0]p: init_precond: 0.029 [ms]
[OGL LOG][StoppingCriterion.H:372] Creating stopping criterion with minIter 1018 frequency 7
[OGL LOG][Proc: 0]p: generate_solver: 0.024 [ms]
[OGL LOG][Proc: 0]p: solve: 7757.1 [ms]
[OGL LOG][Proc: 0]p: copy_x_back: 96.15 [ms]
[OGL LOG][lduLduBase.H:319] 
Statistics:
	Time per iteration: 5126 [mu s]
	Time per residual norm calculation: 429.000000 [mu s]
	Time per iteration and DOF: 0.080094 [ns]
	Retrieve results bandwith 0.665000 [GByte/s]
[OGL LOG][Proc: 0]p: solve_multi_gpu: 8748.15 [ms]
nonehipGKOCG:  Solving for p, Initial residual = 0.937814, Final residual = 9.89901e-05, No Iterations 1513
linear solve p 9049.99 [ms]
[INFO] SolveP: 9050.06 [ms]
time step continuity errors : sum local = 1.08662e-08, global = 2.06446e-22, cumulative = 1.68533e-21
[INFO] ContinuityError: 118.031 [ms]
[INFO] CorrectBoundary: 6.307 [ms]
[INFO] PISOStep: 11153.7 [ms]
[INFO] MatrixAssemblyPI: 1123.83 [ms]
[INFO] AdjustPhi: 62.557 [ms]
[INFO] ConstrainPressure: 0.004 [ms]
[INFO] MatrixAssemblyPII: 329.185 [ms]
[OGL LOG][Proc: 0]: global_index_init: 0.23 [ms]
[OGL LOG][Proc: 0]p_local_coeffs: call_update: 0 [ms]
[OGL LOG][Proc: 0]p_non_local_coeffs: call_update: 0 [ms]
[OGL LOG][Proc: 0]p: update_local_matrix_data: 260.334 [ms]
[OGL LOG][Proc: 0]p: update_non_local_matrix_data: 3.058 [ms]
[OGL LOG][Proc: 0]p: update_build_repartitioner: 42.504 [ms]
[OGL LOG][Proc: 0]p: update_repartitioned_existing: 406.223 [ms]
[OGL LOG][Proc: 0]p: update_offload_local_values: 66.036 [ms]
[OGL LOG][Proc: 0]p: update_offload_non_local_values: 0.302 [ms]
[OGL LOG][Proc: 0]p_matrix: call_update: 515.496 [ms]
[OGL LOG][Proc: 0]p_rhs: call_update: 354.765 [ms]
[OGL LOG][Proc: 0]p: init_precond: 0.05 [ms]
[OGL LOG][StoppingCriterion.H:372] Creating stopping criterion with minIter 907 frequency 7
[OGL LOG][Proc: 0]p: generate_solver: 0.022 [ms]
[OGL LOG][Proc: 0]p: solve: 7767.61 [ms]
[OGL LOG][Proc: 0]p: copy_x_back: 94.006 [ms]
[OGL LOG][lduLduBase.H:319] 
Statistics:
	Time per iteration: 5133 [mu s]
	Time per residual norm calculation: 441.000000 [mu s]
	Time per iteration and DOF: 0.080203 [ns]
	Retrieve results bandwith 0.680000 [GByte/s]
[OGL LOG][Proc: 0]p: solve_multi_gpu: 8732.85 [ms]
nonehipGKOCG:  Solving for p, Initial residual = 0.880256, Final residual = 9.30996e-05, No Iterations 1513
linear solve p 9033.7 [ms]
[INFO] SolveP: 9033.77 [ms]
time step continuity errors : sum local = 1.03226e-08, global = 7.18613e-23, cumulative = 1.75719e-21
[INFO] ContinuityError: 123.709 [ms]
[INFO] CorrectBoundary: 2.318 [ms]
[INFO] PISOStep: 11078.2 [ms]
[INFO] TimeStep: 31334 [ms]
ExecutionTime = 176.33 s  ClockTime = 178 s

Time = 0.000625

Courant Number mean: 0.0236276 max: 0.55604
[INFO] MatrixAssemblyU: 1053.69 [ms]
DILUPBiCGStab:  Solving for Ux, Initial residual = 0.037554, Final residual = 0.00455575, No Iterations 5
DILUPBiCGStab:  Solving for Uy, Initial residual = 0.18484, Final residual = 0.0201377, No Iterations 5
DILUPBiCGStab:  Solving for Uz, Initial residual = 0.754533, Final residual = 0.0531779, No Iterations 5
linear solve U 7552.94 [ms]
[INFO] MomentumPredictor: 7938.61 [ms]
[INFO] MatrixAssemblyPI: 1171.24 [ms]
[INFO] AdjustPhi: 84.527 [ms]
[INFO] ConstrainPressure: 0.003 [ms]
[INFO] MatrixAssemblyPII: 329.308 [ms]
[OGL LOG][Proc: 0]: global_index_init: 0.042 [ms]
[OGL LOG][Proc: 0]p_local_coeffs: call_update: 0 [ms]
[OGL LOG][Proc: 0]p_non_local_coeffs: call_update: 0 [ms]
[OGL LOG][Proc: 0]p: update_local_matrix_data: 260.484 [ms]
[OGL LOG][Proc: 0]p: update_non_local_matrix_data: 3.339 [ms]
[OGL LOG][Proc: 0]p: update_build_repartitioner: 69.701 [ms]
[OGL LOG][Proc: 0]p: update_repartitioned_existing: 406.815 [ms]
[OGL LOG][Proc: 0]p: update_offload_local_values: 57.023 [ms]
[OGL LOG][Proc: 0]p: update_offload_non_local_values: 0.499 [ms]
[OGL LOG][Proc: 0]p_matrix: call_update: 534.597 [ms]
[OGL LOG][Proc: 0]p_rhs: call_update: 358.585 [ms]
[OGL LOG][Proc: 0]p: init_precond: 0.041 [ms]
[OGL LOG][StoppingCriterion.H:372] Creating stopping criterion with minIter 907 frequency 7
[OGL LOG][Proc: 0]p: generate_solver: 0.027 [ms]
[OGL LOG][Proc: 0]p: solve: 7964.19 [ms]
[OGL LOG][Proc: 0]p: copy_x_back: 94.564 [ms]
[OGL LOG][lduLduBase.H:319] 
Statistics:
	Time per iteration: 5168 [mu s]
	Time per residual norm calculation: 419.000000 [mu s]
	Time per iteration and DOF: 0.080750 [ns]
	Retrieve results bandwith 0.676000 [GByte/s]
[OGL LOG][Proc: 0]p: solve_multi_gpu: 8952.88 [ms]
nonehipGKOCG:  Solving for p, Initial residual = 0.954193, Final residual = 9.47658e-05, No Iterations 1541
linear solve p 9255.33 [ms]
[INFO] SolveP: 9255.41 [ms]
time step continuity errors : sum local = 1.2105e-08, global = 1.44059e-22, cumulative = 1.90125e-21
[INFO] ContinuityError: 136.8 [ms]
[INFO] CorrectBoundary: 4.143 [ms]
[INFO] PISOStep: 11385.3 [ms]
[INFO] MatrixAssemblyPI: 1124.46 [ms]
[INFO] AdjustPhi: 61.949 [ms]
[INFO] ConstrainPressure: 0.005 [ms]
[INFO] MatrixAssemblyPII: 328.132 [ms]
[OGL LOG][Proc: 0]: global_index_init: 0.152 [ms]
[OGL LOG][Proc: 0]p_local_coeffs: call_update: 0 [ms]
[OGL LOG][Proc: 0]p_non_local_coeffs: call_update: 0 [ms]
[OGL LOG][Proc: 0]p: update_local_matrix_data: 261.665 [ms]
[OGL LOG][Proc: 0]p: update_non_local_matrix_data: 3.067 [ms]
[OGL LOG][Proc: 0]p: update_build_repartitioner: 51.396 [ms]
[OGL LOG][Proc: 0]p: update_repartitioned_existing: 406.281 [ms]
[OGL LOG][Proc: 0]p: update_offload_local_values: 57.35 [ms]
[OGL LOG][Proc: 0]p: update_offload_non_local_values: 0.34 [ms]
[OGL LOG][Proc: 0]p_matrix: call_update: 515.829 [ms]
[OGL LOG][Proc: 0]p_rhs: call_update: 369.709 [ms]
[OGL LOG][Proc: 0]p: init_precond: 0.037 [ms]
[OGL LOG][StoppingCriterion.H:372] Creating stopping criterion with minIter 924 frequency 7
[OGL LOG][Proc: 0]p: generate_solver: 0.023 [ms]
[OGL LOG][Proc: 0]p: solve: 7784.42 [ms]
[OGL LOG][Proc: 0]p: copy_x_back: 91.423 [ms]
[OGL LOG][lduLduBase.H:319] 
Statistics:
	Time per iteration: 5145 [mu s]
	Time per residual norm calculation: 418.000000 [mu s]
	Time per iteration and DOF: 0.080391 [ns]
	Retrieve results bandwith 0.700000 [GByte/s]
[OGL LOG][Proc: 0]p: solve_multi_gpu: 8762.4 [ms]
nonehipGKOCG:  Solving for p, Initial residual = 0.915235, Final residual = 9.91149e-05, No Iterations 1513
linear solve p 9070.25 [ms]
[INFO] SolveP: 9070.34 [ms]
time step continuity errors : sum local = 1.23777e-08, global = 3.54873e-22, cumulative = 2.25612e-21
[INFO] ContinuityError: 118.329 [ms]
[INFO] CorrectBoundary: 5.907 [ms]
[INFO] PISOStep: 11114.5 [ms]
[INFO] TimeStep: 31635.5 [ms]
ExecutionTime = 207.76 s  ClockTime = 209 s

Time = 0.00075

Courant Number mean: 0.0259658 max: 0.483363
[INFO] MatrixAssemblyU: 1049.67 [ms]
DILUPBiCGStab:  Solving for Ux, Initial residual = 0.0353775, Final residual = 0.00433011, No Iterations 5
DILUPBiCGStab:  Solving for Uy, Initial residual = 0.171172, Final residual = 0.0172559, No Iterations 5
DILUPBiCGStab:  Solving for Uz, Initial residual = 0.699174, Final residual = 0.0476196, No Iterations 5
linear solve U 7508.76 [ms]
[INFO] MomentumPredictor: 7894.67 [ms]
[INFO] MatrixAssemblyPI: 1171.17 [ms]
[INFO] AdjustPhi: 64.376 [ms]
[INFO] ConstrainPressure: 0.003 [ms]
[INFO] MatrixAssemblyPII: 330.113 [ms]
[OGL LOG][Proc: 0]: global_index_init: 0.14 [ms]
[OGL LOG][Proc: 0]p_local_coeffs: call_update: 0 [ms]
[OGL LOG][Proc: 0]p_non_local_coeffs: call_update: 0 [ms]
[OGL LOG][Proc: 0]p: update_local_matrix_data: 261.603 [ms]
[OGL LOG][Proc: 0]p: update_non_local_matrix_data: 2.854 [ms]
[OGL LOG][Proc: 0]p: update_build_repartitioner: 50.155 [ms]
[OGL LOG][Proc: 0]p: update_repartitioned_existing: 407.086 [ms]
[OGL LOG][Proc: 0]p: update_offload_local_values: 60.984 [ms]
[OGL LOG][Proc: 0]p: update_offload_non_local_values: 0.243 [ms]
[OGL LOG][Proc: 0]p_matrix: call_update: 518.909 [ms]
[OGL LOG][Proc: 0]p_rhs: call_update: 329.833 [ms]
[OGL LOG][Proc: 0]p: init_precond: 0.033 [ms]
[OGL LOG][StoppingCriterion.H:372] Creating stopping criterion with minIter 907 frequency 7
[OGL LOG][Proc: 0]p: generate_solver: 0.029 [ms]
[OGL LOG][Proc: 0]p: solve: 8481.02 [ms]
[OGL LOG][Proc: 0]p: copy_x_back: 94.57 [ms]
[OGL LOG][lduLduBase.H:319] 
Statistics:
	Time per iteration: 5109 [mu s]
	Time per residual norm calculation: 442.000000 [mu s]
	Time per iteration and DOF: 0.079828 [ns]
	Retrieve results bandwith 0.676000 [GByte/s]
[OGL LOG][Proc: 0]p: solve_multi_gpu: 9425.34 [ms]
nonehipGKOCG:  Solving for p, Initial residual = 0.95118, Final residual = 9.44918e-05, No Iterations 1660
linear solve p 9727.3 [ms]
[INFO] SolveP: 9727.37 [ms]
time step continuity errors : sum local = 1.45701e-08, global = 3.91567e-22, cumulative = 2.64769e-21
[INFO] ContinuityError: 119.081 [ms]
[INFO] CorrectBoundary: 1.459 [ms]
[INFO] PISOStep: 11809.1 [ms]
[INFO] MatrixAssemblyPI: 1125.16 [ms]
[INFO] AdjustPhi: 65.88 [ms]
[INFO] ConstrainPressure: 0.004 [ms]
[INFO] MatrixAssemblyPII: 328.416 [ms]
[OGL LOG][Proc: 0]: global_index_init: 0.253 [ms]
[OGL LOG][Proc: 0]p_local_coeffs: call_update: 0 [ms]
[OGL LOG][Proc: 0]p_non_local_coeffs: call_update: 0 [ms]
[OGL LOG][Proc: 0]p: update_local_matrix_data: 261.46 [ms]
[OGL LOG][Proc: 0]p: update_non_local_matrix_data: 3.224 [ms]
[OGL LOG][Proc: 0]p: update_build_repartitioner: 42.089 [ms]
[OGL LOG][Proc: 0]p: update_repartitioned_existing: 406.324 [ms]
[OGL LOG][Proc: 0]p: update_offload_local_values: 55.96 [ms]
[OGL LOG][Proc: 0]p: update_offload_non_local_values: 0.493 [ms]
[OGL LOG][Proc: 0]p_matrix: call_update: 505.337 [ms]
[OGL LOG][Proc: 0]p_rhs: call_update: 352.629 [ms]
[OGL LOG][Proc: 0]p: init_precond: 0.036 [ms]
[OGL LOG][StoppingCriterion.H:372] Creating stopping criterion with minIter 996 frequency 7
[OGL LOG][Proc: 0]p: generate_solver: 0.019 [ms]
[OGL LOG][Proc: 0]p: solve: 8403.57 [ms]
[OGL LOG][Proc: 0]p: copy_x_back: 95.899 [ms]
[OGL LOG][lduLduBase.H:319] 
Statistics:
	Time per iteration: 5127 [mu s]
	Time per residual norm calculation: 431.000000 [mu s]
	Time per iteration and DOF: 0.080109 [ns]
	Retrieve results bandwith 0.667000 [GByte/s]
[OGL LOG][Proc: 0]p: solve_multi_gpu: 9358.41 [ms]
nonehipGKOCG:  Solving for p, Initial residual = 0.891189, Final residual = 9.34579e-05, No Iterations 1639
linear solve p 9660.22 [ms]
[INFO] SolveP: 9660.28 [ms]
time step continuity errors : sum local = 1.39584e-08, global = -7.95644e-23, cumulative = 2.56813e-21
[INFO] ContinuityError: 122.272 [ms]
[INFO] CorrectBoundary: 1.762 [ms]
[INFO] PISOStep: 11706.9 [ms]
[INFO] TimeStep: 32594.9 [ms]
ExecutionTime = 240.14 s  ClockTime = 242 s

Time = 0.000875

Courant Number mean: 0.0281639 max: 0.612311
[INFO] MatrixAssemblyU: 1050.03 [ms]
DILUPBiCGStab:  Solving for Ux, Initial residual = 0.0349889, Final residual = 0.00412322, No Iterations 5
DILUPBiCGStab:  Solving for Uy, Initial residual = 0.176561, Final residual = 0.0165197, No Iterations 5
DILUPBiCGStab:  Solving for Uz, Initial residual = 0.69614, Final residual = 0.0440717, No Iterations 5
linear solve U 7542.55 [ms]
[INFO] MomentumPredictor: 7931.72 [ms]
[INFO] MatrixAssemblyPI: 1166.25 [ms]
[INFO] AdjustPhi: 70.612 [ms]
[INFO] ConstrainPressure: 0.003 [ms]
[INFO] MatrixAssemblyPII: 328.887 [ms]
[OGL LOG][Proc: 0]: global_index_init: 0.02 [ms]
[OGL LOG][Proc: 0]p_local_coeffs: call_update: 0 [ms]
[OGL LOG][Proc: 0]p_non_local_coeffs: call_update: 0 [ms]
[OGL LOG][Proc: 0]p: update_local_matrix_data: 262.518 [ms]
[OGL LOG][Proc: 0]p: update_non_local_matrix_data: 3.06 [ms]
[OGL LOG][Proc: 0]p: update_build_repartitioner: 81.718 [ms]
[OGL LOG][Proc: 0]p: update_repartitioned_existing: 406.625 [ms]
[OGL LOG][Proc: 0]p: update_offload_local_values: 60.563 [ms]
[OGL LOG][Proc: 0]p: update_offload_non_local_values: 0.251 [ms]
[OGL LOG][Proc: 0]p_matrix: call_update: 549.599 [ms]
[OGL LOG][Proc: 0]p_rhs: call_update: 347.657 [ms]
[OGL LOG][Proc: 0]p: init_precond: 0.031 [ms]
[OGL LOG][StoppingCriterion.H:372] Creating stopping criterion with minIter 983 frequency 7
[OGL LOG][Proc: 0]p: generate_solver: 0.025 [ms]
[OGL LOG][Proc: 0]p: solve: 15392 [ms]
[OGL LOG][Proc: 0]p: copy_x_back: 100.321 [ms]
[OGL LOG][lduLduBase.H:319] 
Statistics:
	Time per iteration: 5007 [mu s]
	Time per residual norm calculation: 424.000000 [mu s]
	Time per iteration and DOF: 0.078234 [ns]
	Retrieve results bandwith 0.637000 [GByte/s]
[OGL LOG][Proc: 0]p: solve_multi_gpu: 16390.5 [ms]
nonehipGKOCG:  Solving for p, Initial residual = 0.962155, Final residual = 9.82021e-05, No Iterations 3074
linear solve p 16693.1 [ms]
[INFO] SolveP: 16693.2 [ms]
time step continuity errors : sum local = 1.6015e-08, global = 6.47411e-22, cumulative = 3.21554e-21
[INFO] ContinuityError: 123.885 [ms]
[INFO] CorrectBoundary: 2.147 [ms]
[INFO] PISOStep: 18786.9 [ms]
[INFO] MatrixAssemblyPI: 1125.23 [ms]
[INFO] AdjustPhi: 64.584 [ms]
[INFO] ConstrainPressure: 0.004 [ms]
[INFO] MatrixAssemblyPII: 328.996 [ms]
[OGL LOG][Proc: 0]: global_index_init: 0.081 [ms]
[OGL LOG][Proc: 0]p_local_coeffs: call_update: 0 [ms]
[OGL LOG][Proc: 0]p_non_local_coeffs: call_update: 0 [ms]
[OGL LOG][Proc: 0]p: update_local_matrix_data: 260.634 [ms]
[OGL LOG][Proc: 0]p: update_non_local_matrix_data: 3.106 [ms]
[OGL LOG][Proc: 0]p: update_build_repartitioner: 37.034 [ms]
[OGL LOG][Proc: 0]p: update_repartitioned_existing: 406.434 [ms]
[OGL LOG][Proc: 0]p: update_offload_local_values: 63.68 [ms]
[OGL LOG][Proc: 0]p: update_offload_non_local_values: 0.306 [ms]
[OGL LOG][Proc: 0]p_matrix: call_update: 507.888 [ms]
[OGL LOG][Proc: 0]p_rhs: call_update: 335.758 [ms]
[OGL LOG][Proc: 0]p: init_precond: 0.045 [ms]
[OGL LOG][StoppingCriterion.H:372] Creating stopping criterion with minIter 1844 frequency 10
[OGL LOG][Proc: 0]p: generate_solver: 0.022 [ms]
[OGL LOG][Proc: 0]p: solve: 15009.8 [ms]
[OGL LOG][Proc: 0]p: copy_x_back: 96.804 [ms]
[OGL LOG][lduLduBase.H:319] 
Statistics:
	Time per iteration: 5001 [mu s]
	Time per residual norm calculation: 416.000000 [mu s]
	Time per iteration and DOF: 0.078141 [ns]
	Retrieve results bandwith 0.661000 [GByte/s]
[OGL LOG][Proc: 0]p: solve_multi_gpu: 15951.2 [ms]
nonehipGKOCG:  Solving for p, Initial residual = 0.917552, Final residual = 0.000343419, No Iterations 3001
linear solve p 16256 [ms]
[INFO] SolveP: 16256.1 [ms]
time step continuity errors : sum local = 5.58075e-08, global = 4.99876e-22, cumulative = 3.71541e-21
[INFO] ContinuityError: 124.778 [ms]
[INFO] CorrectBoundary: 2.567 [ms]
[INFO] PISOStep: 18306.5 [ms]
[INFO] TimeStep: 46224.1 [ms]
ExecutionTime = 286.13 s  ClockTime = 288 s

Time = 0.001

Courant Number mean: 0.0299125 max: 0.491015
[INFO] MatrixAssemblyU: 1050.67 [ms]
DILUPBiCGStab:  Solving for Ux, Initial residual = 0.0361825, Final residual = 0.00400628, No Iterations 5
DILUPBiCGStab:  Solving for Uy, Initial residual = 0.169957, Final residual = 0.0142299, No Iterations 5
DILUPBiCGStab:  Solving for Uz, Initial residual = 0.683672, Final residual = 0.0403053, No Iterations 5
linear solve U 7543.49 [ms]
[INFO] MomentumPredictor: 7930.51 [ms]
[INFO] MatrixAssemblyPI: 1152.23 [ms]
[INFO] AdjustPhi: 94.279 [ms]
[INFO] ConstrainPressure: 0.003 [ms]
[INFO] MatrixAssemblyPII: 329.366 [ms]
[OGL LOG][Proc: 0]: global_index_init: 0.242 [ms]
[OGL LOG][Proc: 0]p_local_coeffs: call_update: 0 [ms]
[OGL LOG][Proc: 0]p_non_local_coeffs: call_update: 0 [ms]
[OGL LOG][Proc: 0]p: update_local_matrix_data: 262.07 [ms]
[OGL LOG][Proc: 0]p: update_non_local_matrix_data: 3.41 [ms]
[OGL LOG][Proc: 0]p: update_build_repartitioner: 86.288 [ms]
[OGL LOG][Proc: 0]p: update_repartitioned_existing: 406.176 [ms]
[OGL LOG][Proc: 0]p: update_offload_local_values: 57.965 [ms]
[OGL LOG][Proc: 0]p: update_offload_non_local_values: 0.235 [ms]
[OGL LOG][Proc: 0]p_matrix: call_update: 551.086 [ms]
[OGL LOG][Proc: 0]p_rhs: call_update: 383.896 [ms]
[OGL LOG][Proc: 0]p: init_precond: 0.034 [ms]
[OGL LOG][StoppingCriterion.H:372] Creating stopping criterion with minIter 1800 frequency 10
[OGL LOG][Proc: 0]p: generate_solver: 0.021 [ms]
[OGL LOG][Proc: 0]p: solve: 14977.4 [ms]
[OGL LOG][Proc: 0]p: copy_x_back: 96.418 [ms]
[OGL LOG][lduLduBase.H:319] 
Statistics:
	Time per iteration: 4990 [mu s]
	Time per residual norm calculation: 422.000000 [mu s]
	Time per iteration and DOF: 0.077969 [ns]
	Retrieve results bandwith 0.663000 [GByte/s]
[OGL LOG][Proc: 0]p: solve_multi_gpu: 16009.9 [ms]
nonehipGKOCG:  Solving for p, Initial residual = 0.960036, Final residual = 0.000370549, No Iterations 3001
linear solve p 16312 [ms]
[INFO] SolveP: 16312 [ms]
time step continuity errors : sum local = 6.96071e-08, global = 8.55977e-22, cumulative = 4.57139e-21
[INFO] ContinuityError: 123.573 [ms]
[INFO] CorrectBoundary: 1.223 [ms]
[INFO] PISOStep: 18418.6 [ms]
[INFO] MatrixAssemblyPI: 1124.5 [ms]
[INFO] AdjustPhi: 60.573 [ms]
[INFO] ConstrainPressure: 0.005 [ms]
[INFO] MatrixAssemblyPII: 328.47 [ms]
[OGL LOG][Proc: 0]: global_index_init: 0.217 [ms]
[OGL LOG][Proc: 0]p_local_coeffs: call_update: 0 [ms]
[OGL LOG][Proc: 0]p_non_local_coeffs: call_update: 0 [ms]
[OGL LOG][Proc: 0]p: update_local_matrix_data: 262.644 [ms]
[OGL LOG][Proc: 0]p: update_non_local_matrix_data: 3.129 [ms]
[OGL LOG][Proc: 0]p: update_build_repartitioner: 36.601 [ms]
[OGL LOG][Proc: 0]p: update_repartitioned_existing: 406.228 [ms]
[OGL LOG][Proc: 0]p: update_offload_local_values: 61.409 [ms]
[OGL LOG][Proc: 0]p: update_offload_non_local_values: 0.245 [ms]
[OGL LOG][Proc: 0]p_matrix: call_update: 504.914 [ms]
[OGL LOG][Proc: 0]p_rhs: call_update: 366.69 [ms]
[OGL LOG][Proc: 0]p: init_precond: 0.031 [ms]
[OGL LOG][StoppingCriterion.H:372] Creating stopping criterion with minIter 1800 frequency 10
[OGL LOG][Proc: 0]p: generate_solver: 0.024 [ms]
[OGL LOG][Proc: 0]p: solve: 15035.8 [ms]
[OGL LOG][Proc: 0]p: copy_x_back: 100.178 [ms]
[OGL LOG][lduLduBase.H:319] 
Statistics:
	Time per iteration: 5010 [mu s]
	Time per residual norm calculation: 452.000000 [mu s]
	Time per iteration and DOF: 0.078281 [ns]
	Retrieve results bandwith 0.638000 [GByte/s]
[OGL LOG][Proc: 0]p: solve_multi_gpu: 16008.5 [ms]
nonehipGKOCG:  Solving for p, Initial residual = 0.898084, Final residual = 0.000350842, No Iterations 3001
linear solve p 16314.1 [ms]
[INFO] SolveP: 16314.2 [ms]
time step continuity errors : sum local = 6.68723e-08, global = 8.02675e-22, cumulative = 5.37406e-21
[INFO] ContinuityError: 124.723 [ms]
[INFO] CorrectBoundary: 2.474 [ms]
[INFO] PISOStep: 18361.7 [ms]
[INFO] TimeStep: 45900.5 [ms]
ExecutionTime = 331.73 s  ClockTime = 334 s

Time = 0.001125

Courant Number mean: 0.0317151 max: 0.695882
[INFO] MatrixAssemblyU: 1052.55 [ms]
DILUPBiCGStab:  Solving for Ux, Initial residual = 0.0374011, Final residual = 0.00378907, No Iterations 5
DILUPBiCGStab:  Solving for Uy, Initial residual = 0.186822, Final residual = 0.0146844, No Iterations 5
DILUPBiCGStab:  Solving for Uz, Initial residual = 0.698209, Final residual = 0.0401017, No Iterations 5
linear solve U 7552.3 [ms]
[INFO] MomentumPredictor: 7938.84 [ms]
[INFO] MatrixAssemblyPI: 1123.98 [ms]
[INFO] AdjustPhi: 123.548 [ms]
[INFO] ConstrainPressure: 0.004 [ms]
[INFO] MatrixAssemblyPII: 327.006 [ms]
[OGL LOG][Proc: 0]: global_index_init: 0.112 [ms]
[OGL LOG][Proc: 0]p_local_coeffs: call_update: 0 [ms]
[OGL LOG][Proc: 0]p_non_local_coeffs: call_update: 0 [ms]
[OGL LOG][Proc: 0]p: update_local_matrix_data: 255.65 [ms]
[OGL LOG][Proc: 0]p: update_non_local_matrix_data: 3.535 [ms]
[OGL LOG][Proc: 0]p: update_build_repartitioner: 91.962 [ms]
[OGL LOG][Proc: 0]p: update_repartitioned_existing: 406.329 [ms]
[OGL LOG][Proc: 0]p: update_offload_local_values: 57.696 [ms]
[OGL LOG][Proc: 0]p: update_offload_non_local_values: 0.242 [ms]
[OGL LOG][Proc: 0]p_matrix: call_update: 556.655 [ms]
[OGL LOG][Proc: 0]p_rhs: call_update: 369.663 [ms]
[OGL LOG][Proc: 0]p: init_precond: 0.047 [ms]
[OGL LOG][StoppingCriterion.H:372] Creating stopping criterion with minIter 1800 frequency 10
[OGL LOG][Proc: 0]p: generate_solver: 0.022 [ms]
[OGL LOG][Proc: 0]p: solve: 14938.5 [ms]
[OGL LOG][Proc: 0]p: copy_x_back: 102.366 [ms]
[OGL LOG][lduLduBase.H:319] 
Statistics:
	Time per iteration: 4977 [mu s]
	Time per residual norm calculation: 414.000000 [mu s]
	Time per iteration and DOF: 0.077766 [ns]
	Retrieve results bandwith 0.625000 [GByte/s]
[OGL LOG][Proc: 0]p: solve_multi_gpu: 15968.2 [ms]
nonehipGKOCG:  Solving for p, Initial residual = 0.968053, Final residual = 0.000366974, No Iterations 3001
linear solve p 16264.6 [ms]
[INFO] SolveP: 16264.6 [ms]
time step continuity errors : sum local = 7.93304e-08, global = 4.17287e-22, cumulative = 5.79135e-21
[INFO] ContinuityError: 123.402 [ms]
[INFO] CorrectBoundary: 2.069 [ms]
[INFO] PISOStep: 18370 [ms]
[INFO] MatrixAssemblyPI: 1118.48 [ms]
[INFO] AdjustPhi: 69.887 [ms]
[INFO] ConstrainPressure: 0.005 [ms]
[INFO] MatrixAssemblyPII: 329.738 [ms]
[OGL LOG][Proc: 0]: global_index_init: 0.091 [ms]
[OGL LOG][Proc: 0]p_local_coeffs: call_update: 0 [ms]
[OGL LOG][Proc: 0]p_non_local_coeffs: call_update: 0 [ms]
[OGL LOG][Proc: 0]p: update_local_matrix_data: 257.938 [ms]
[OGL LOG][Proc: 0]p: update_non_local_matrix_data: 3.23 [ms]
[OGL LOG][Proc: 0]p: update_build_repartitioner: 47.086 [ms]
[OGL LOG][Proc: 0]p: update_repartitioned_existing: 404.247 [ms]
[OGL LOG][Proc: 0]p: update_offload_local_values: 61.669 [ms]
[OGL LOG][Proc: 0]p: update_offload_non_local_values: 0.337 [ms]
[OGL LOG][Proc: 0]p_matrix: call_update: 513.754 [ms]
[OGL LOG][Proc: 0]p_rhs: call_update: 365.525 [ms]
[OGL LOG][Proc: 0]p: init_precond: 0.033 [ms]
[OGL LOG][StoppingCriterion.H:372] Creating stopping criterion with minIter 1800 frequency 10
[OGL LOG][Proc: 0]p: generate_solver: 0.022 [ms]
[OGL LOG][Proc: 0]p: solve: 15014.9 [ms]
[OGL LOG][Proc: 0]p: copy_x_back: 97.667 [ms]
[OGL LOG][lduLduBase.H:319] 
Statistics:
	Time per iteration: 5003 [mu s]
	Time per residual norm calculation: 415.000000 [mu s]
	Time per iteration and DOF: 0.078172 [ns]
	Retrieve results bandwith 0.655000 [GByte/s]
[OGL LOG][Proc: 0]p: solve_multi_gpu: 15992.9 [ms]
nonehipGKOCG:  Solving for p, Initial residual = 0.918825, Final residual = 0.000350692, No Iterations 3001
linear solve p 16295.5 [ms]
[INFO] SolveP: 16295.6 [ms]
time step continuity errors : sum local = 7.57083e-08, global = 1.40435e-21, cumulative = 7.1957e-21
[INFO] ContinuityError: 127.439 [ms]
[INFO] CorrectBoundary: 4.061 [ms]
[INFO] PISOStep: 18350.8 [ms]
[INFO] TimeStep: 45858.2 [ms]
ExecutionTime = 377.26 s  ClockTime = 380 s

Time = 0.00125

Courant Number mean: 0.0331291 max: 0.507107
[INFO] MatrixAssemblyU: 1028.88 [ms]
DILUPBiCGStab:  Solving for Ux, Initial residual = 0.0407764, Final residual = 0.00385654, No Iterations 5
DILUPBiCGStab:  Solving for Uy, Initial residual = 0.185615, Final residual = 0.0129726, No Iterations 5
DILUPBiCGStab:  Solving for Uz, Initial residual = 0.698301, Final residual = 0.0387644, No Iterations 5
linear solve U 7525.48 [ms]
[INFO] MomentumPredictor: 7927.68 [ms]
[INFO] MatrixAssemblyPI: 1163.18 [ms]
[INFO] AdjustPhi: 73.22 [ms]
[INFO] ConstrainPressure: 0.003 [ms]
[INFO] MatrixAssemblyPII: 325.091 [ms]
[OGL LOG][Proc: 0]: global_index_init: 0.256 [ms]
[OGL LOG][Proc: 0]p_local_coeffs: call_update: 0 [ms]
[OGL LOG][Proc: 0]p_non_local_coeffs: call_update: 0 [ms]
[OGL LOG][Proc: 0]p: update_local_matrix_data: 255.917 [ms]
[OGL LOG][Proc: 0]p: update_non_local_matrix_data: 3.784 [ms]
[OGL LOG][Proc: 0]p: update_build_repartitioner: 75.726 [ms]
[OGL LOG][Proc: 0]p: update_repartitioned_existing: 405.459 [ms]
[OGL LOG][Proc: 0]p: update_offload_local_values: 57.218 [ms]
[OGL LOG][Proc: 0]p: update_offload_non_local_values: 0.232 [ms]
[OGL LOG][Proc: 0]p_matrix: call_update: 539.051 [ms]
[OGL LOG][Proc: 0]p_rhs: call_update: 364.055 [ms]
[OGL LOG][Proc: 0]p: init_precond: 0.034 [ms]
[OGL LOG][StoppingCriterion.H:372] Creating stopping criterion with minIter 1800 frequency 10
[OGL LOG][Proc: 0]p: generate_solver: 0.026 [ms]
[OGL LOG][Proc: 0]p: solve: 14979.3 [ms]
[OGL LOG][Proc: 0]p: copy_x_back: 95.068 [ms]
[OGL LOG][lduLduBase.H:319] 
Statistics:
	Time per iteration: 4991 [mu s]
	Time per residual norm calculation: 422.000000 [mu s]
	Time per iteration and DOF: 0.077984 [ns]
	Retrieve results bandwith 0.673000 [GByte/s]
[OGL LOG][Proc: 0]p: solve_multi_gpu: 15978.5 [ms]
nonehipGKOCG:  Solving for p, Initial residual = 0.967438, Final residual = 0.000361042, No Iterations 3001
linear solve p 16276.4 [ms]
[INFO] SolveP: 16276.5 [ms]
time step continuity errors : sum local = 9.09619e-08, global = 8.71952e-22, cumulative = 8.06765e-21
[INFO] ContinuityError: 118.58 [ms]
[INFO] CorrectBoundary: 1.145 [ms]
[INFO] PISOStep: 18353.7 [ms]
[INFO] MatrixAssemblyPI: 1127.62 [ms]
[INFO] AdjustPhi: 67.831 [ms]
[INFO] ConstrainPressure: 0.004 [ms]
[INFO] MatrixAssemblyPII: 329.758 [ms]
[OGL LOG][Proc: 0]: global_index_init: 0.272 [ms]
[OGL LOG][Proc: 0]p_local_coeffs: call_update: 0 [ms]
[OGL LOG][Proc: 0]p_non_local_coeffs: call_update: 0 [ms]
[OGL LOG][Proc: 0]p: update_local_matrix_data: 258.831 [ms]
[OGL LOG][Proc: 0]p: update_non_local_matrix_data: 3.136 [ms]
[OGL LOG][Proc: 0]p: update_build_repartitioner: 85.703 [ms]
[OGL LOG][Proc: 0]p: update_repartitioned_existing: 406.527 [ms]
[OGL LOG][Proc: 0]p: update_offload_local_values: 54.834 [ms]
[OGL LOG][Proc: 0]p: update_offload_non_local_values: 0.372 [ms]
[OGL LOG][Proc: 0]p_matrix: call_update: 547.865 [ms]
[OGL LOG][Proc: 0]p_rhs: call_update: 340.342 [ms]
[OGL LOG][Proc: 0]p: init_precond: 0.036 [ms]
[OGL LOG][StoppingCriterion.H:372] Creating stopping criterion with minIter 1800 frequency 10
[OGL LOG][Proc: 0]p: generate_solver: 0.022 [ms]
[OGL LOG][Proc: 0]p: solve: 14994.1 [ms]
[OGL LOG][Proc: 0]p: copy_x_back: 91.165 [ms]
[OGL LOG][lduLduBase.H:319] 
Statistics:
	Time per iteration: 4996 [mu s]
	Time per residual norm calculation: 439.000000 [mu s]
	Time per iteration and DOF: 0.078063 [ns]
	Retrieve results bandwith 0.702000 [GByte/s]
[OGL LOG][Proc: 0]p: solve_multi_gpu: 15974.5 [ms]
nonehipGKOCG:  Solving for p, Initial residual = 0.904017, Final residual = 0.000343206, No Iterations 3001
linear solve p 16279 [ms]
[INFO] SolveP: 16279.1 [ms]
time step continuity errors : sum local = 8.76117e-08, global = 6.87775e-22, cumulative = 8.75542e-21
[INFO] ContinuityError: 118.379 [ms]
[INFO] CorrectBoundary: 1.649 [ms]
[INFO] PISOStep: 18327.8 [ms]
[INFO] TimeStep: 45774.3 [ms]
ExecutionTime = 422.74 s  ClockTime = 426 s

Time = 0.001375

Courant Number mean: 0.0347279 max: 0.825443
[INFO] MatrixAssemblyU: 1050.17 [ms]
DILUPBiCGStab:  Solving for Ux, Initial residual = 0.0435345, Final residual = 0.00369295, No Iterations 5
DILUPBiCGStab:  Solving for Uy, Initial residual = 0.209515, Final residual = 0.0140545, No Iterations 5
DILUPBiCGStab:  Solving for Uz, Initial residual = 0.712155, Final residual = 0.0383545, No Iterations 5
linear solve U 7583.54 [ms]
[INFO] MomentumPredictor: 7969.48 [ms]
[INFO] MatrixAssemblyPI: 1116.93 [ms]
[INFO] AdjustPhi: 136.752 [ms]
[INFO] ConstrainPressure: 0.003 [ms]
[INFO] MatrixAssemblyPII: 329.959 [ms]
[OGL LOG][Proc: 0]: global_index_init: 0.023 [ms]
[OGL LOG][Proc: 0]p_local_coeffs: call_update: 0 [ms]
[OGL LOG][Proc: 0]p_non_local_coeffs: call_update: 0 [ms]
[OGL LOG][Proc: 0]p: update_local_matrix_data: 261.283 [ms]
[OGL LOG][Proc: 0]p: update_non_local_matrix_data: 3.326 [ms]
[OGL LOG][Proc: 0]p: update_build_repartitioner: 84.064 [ms]
[OGL LOG][Proc: 0]p: update_repartitioned_existing: 406.238 [ms]
[OGL LOG][Proc: 0]p: update_offload_local_values: 52.548 [ms]
[OGL LOG][Proc: 0]p: update_offload_non_local_values: 0.239 [ms]
[OGL LOG][Proc: 0]p_matrix: call_update: 543.49 [ms]
[OGL LOG][Proc: 0]p_rhs: call_update: 397.466 [ms]
[OGL LOG][Proc: 0]p: init_precond: 0.034 [ms]
[OGL LOG][StoppingCriterion.H:372] Creating stopping criterion with minIter 1800 frequency 10
[OGL LOG][Proc: 0]p: generate_solver: 0.022 [ms]
[OGL LOG][Proc: 0]p: solve: 15093.5 [ms]
[OGL LOG][Proc: 0]p: copy_x_back: 99.315 [ms]
[OGL LOG][lduLduBase.H:319] 
Statistics:
	Time per iteration: 5029 [mu s]
	Time per residual norm calculation: 414.000000 [mu s]
	Time per iteration and DOF: 0.078578 [ns]
	Retrieve results bandwith 0.644000 [GByte/s]
[OGL LOG][Proc: 0]p: solve_multi_gpu: 16134.8 [ms]
nonehipGKOCG:  Solving for p, Initial residual = 0.973047, Final residual = 0.000356115, No Iterations 3001
linear solve p 16442.8 [ms]
[INFO] SolveP: 16442.8 [ms]
time step continuity errors : sum local = 1.04289e-07, global = -4.90983e-22, cumulative = 8.26444e-21
[INFO] ContinuityError: 117.008 [ms]
[INFO] CorrectBoundary: 4.03 [ms]
[INFO] PISOStep: 18555 [ms]
[INFO] MatrixAssemblyPI: 1123.01 [ms]
[INFO] AdjustPhi: 64.329 [ms]
[INFO] ConstrainPressure: 0.004 [ms]
[INFO] MatrixAssemblyPII: 329.643 [ms]
[OGL LOG][Proc: 0]: global_index_init: 0.153 [ms]
[OGL LOG][Proc: 0]p_local_coeffs: call_update: 0 [ms]
[OGL LOG][Proc: 0]p_non_local_coeffs: call_update: 0 [ms]
[OGL LOG][Proc: 0]p: update_local_matrix_data: 259.223 [ms]
[OGL LOG][Proc: 0]p: update_non_local_matrix_data: 3.052 [ms]
[OGL LOG][Proc: 0]p: update_build_repartitioner: 80.081 [ms]
[OGL LOG][Proc: 0]p: update_repartitioned_existing: 405.973 [ms]
[OGL LOG][Proc: 0]p: update_offload_local_values: 59.733 [ms]
[OGL LOG][Proc: 0]p: update_offload_non_local_values: 0.229 [ms]
[OGL LOG][Proc: 0]p_matrix: call_update: 546.429 [ms]
[OGL LOG][Proc: 0]p_rhs: call_update: 357.631 [ms]
[OGL LOG][Proc: 0]p: init_precond: 0.038 [ms]
[OGL LOG][StoppingCriterion.H:372] Creating stopping criterion with minIter 1800 frequency 10
[OGL LOG][Proc: 0]p: generate_solver: 0.021 [ms]
[OGL LOG][Proc: 0]p: solve: 15001.7 [ms]
[OGL LOG][Proc: 0]p: copy_x_back: 91.459 [ms]
[OGL LOG][lduLduBase.H:319] 
Statistics:
	Time per iteration: 4998 [mu s]
	Time per residual norm calculation: 472.000000 [mu s]
	Time per iteration and DOF: 0.078094 [ns]
	Retrieve results bandwith 0.699000 [GByte/s]
[OGL LOG][Proc: 0]p: solve_multi_gpu: 15998.2 [ms]
nonehipGKOCG:  Solving for p, Initial residual = 0.919708, Final residual = 0.000338683, No Iterations 3001
linear solve p 16302.1 [ms]
[INFO] SolveP: 16302.1 [ms]
time step continuity errors : sum local = 9.92405e-08, global = 4.07361e-22, cumulative = 8.6718e-21
[INFO] ContinuityError: 126.531 [ms]
[INFO] CorrectBoundary: 4.157 [ms]
[INFO] PISOStep: 18353.5 [ms]
[INFO] TimeStep: 46067.5 [ms]
ExecutionTime = 468.52 s  ClockTime = 472 s

Time = 0.0015

Courant Number mean: 0.0359278 max: 0.59721
[INFO] MatrixAssemblyU: 1050.81 [ms]
DILUPBiCGStab:  Solving for Ux, Initial residual = 0.0489821, Final residual = 0.0038977, No Iterations 5
DILUPBiCGStab:  Solving for Uy, Initial residual = 0.213729, Final residual = 0.0128679, No Iterations 5
DILUPBiCGStab:  Solving for Uz, Initial residual = 0.71559, Final residual = 0.0376593, No Iterations 5
linear solve U 7587.39 [ms]
[INFO] MomentumPredictor: 7975 [ms]
[INFO] MatrixAssemblyPI: 1138.63 [ms]
[INFO] AdjustPhi: 114.438 [ms]
[INFO] ConstrainPressure: 0.003 [ms]
[INFO] MatrixAssemblyPII: 328.166 [ms]
[OGL LOG][Proc: 0]: global_index_init: 0.198 [ms]
[OGL LOG][Proc: 0]p_local_coeffs: call_update: 0 [ms]
[OGL LOG][Proc: 0]p_non_local_coeffs: call_update: 0 [ms]
[OGL LOG][Proc: 0]p: update_local_matrix_data: 260.816 [ms]
[OGL LOG][Proc: 0]p: update_non_local_matrix_data: 3.44 [ms]
[OGL LOG][Proc: 0]p: update_build_repartitioner: 47.473 [ms]
[OGL LOG][Proc: 0]p: update_repartitioned_existing: 407.192 [ms]
[OGL LOG][Proc: 0]p: update_offload_local_values: 50.973 [ms]
[OGL LOG][Proc: 0]p: update_offload_non_local_values: 0.29 [ms]
[OGL LOG][Proc: 0]p_matrix: call_update: 506.397 [ms]
[OGL LOG][Proc: 0]p_rhs: call_update: 369.891 [ms]
[OGL LOG][Proc: 0]p: init_precond: 0.057 [ms]
[OGL LOG][StoppingCriterion.H:372] Creating stopping criterion with minIter 1800 frequency 10
[OGL LOG][Proc: 0]p: generate_solver: 0.028 [ms]
[OGL LOG][Proc: 0]p: solve: 14977.9 [ms]
[OGL LOG][Proc: 0]p: copy_x_back: 96.786 [ms]
[OGL LOG][lduLduBase.H:319] 
Statistics:
	Time per iteration: 4990 [mu s]
	Time per residual norm calculation: 415.000000 [mu s]
	Time per iteration and DOF: 0.077969 [ns]
	Retrieve results bandwith 0.661000 [GByte/s]
[OGL LOG][Proc: 0]p: solve_multi_gpu: 15952 [ms]
nonehipGKOCG:  Solving for p, Initial residual = 0.973302, Final residual = 0.000261967, No Iterations 3001
linear solve p 16254.4 [ms]
[INFO] SolveP: 16254.4 [ms]
time step continuity errors : sum local = 9.0007e-08, global = -1.60783e-22, cumulative = 8.51102e-21
[INFO] ContinuityError: 123.988 [ms]
[INFO] CorrectBoundary: 2.234 [ms]
[INFO] PISOStep: 18369.2 [ms]
[INFO] MatrixAssemblyPI: 1129.31 [ms]
[INFO] AdjustPhi: 66.044 [ms]
[INFO] ConstrainPressure: 0.004 [ms]
[INFO] MatrixAssemblyPII: 329.29 [ms]
[OGL LOG][Proc: 0]: global_index_init: 0.296 [ms]
[OGL LOG][Proc: 0]p_local_coeffs: call_update: 0 [ms]
[OGL LOG][Proc: 0]p_non_local_coeffs: call_update: 0 [ms]
[OGL LOG][Proc: 0]p: update_local_matrix_data: 259.41 [ms]
[OGL LOG][Proc: 0]p: update_non_local_matrix_data: 3.227 [ms]
[OGL LOG][Proc: 0]p: update_build_repartitioner: 83.811 [ms]
[OGL LOG][Proc: 0]p: update_repartitioned_existing: 406.076 [ms]
[OGL LOG][Proc: 0]p: update_offload_local_values: 50.064 [ms]
[OGL LOG][Proc: 0]p: update_offload_non_local_values: 0.348 [ms]
[OGL LOG][Proc: 0]p_matrix: call_update: 540.709 [ms]
[OGL LOG][Proc: 0]p_rhs: call_update: 360.723 [ms]
[OGL LOG][Proc: 0]p: init_precond: 0.047 [ms]
[OGL LOG][StoppingCriterion.H:372] Creating stopping criterion with minIter 1800 frequency 10
[OGL LOG][Proc: 0]p: generate_solver: 0.02 [ms]
[OGL LOG][Proc: 0]p: solve: 15074.8 [ms]
[OGL LOG][Proc: 0]p: copy_x_back: 94.013 [ms]
[OGL LOG][lduLduBase.H:319] 
Statistics:
	Time per iteration: 5023 [mu s]
	Time per residual norm calculation: 431.000000 [mu s]
	Time per iteration and DOF: 0.078484 [ns]
	Retrieve results bandwith 0.680000 [GByte/s]
[OGL LOG][Proc: 0]p: solve_multi_gpu: 16071.2 [ms]
nonehipGKOCG:  Solving for p, Initial residual = 0.908928, Final residual = 0.000284488, No Iterations 3001
linear solve p 16374 [ms]
[INFO] SolveP: 16374 [ms]
time step continuity errors : sum local = 9.89131e-08, global = -4.48228e-23, cumulative = 8.4662e-21
[INFO] ContinuityError: 119.956 [ms]
[INFO] CorrectBoundary: 4.781 [ms]
[INFO] PISOStep: 18429.7 [ms]
[INFO] TimeStep: 45956.9 [ms]
ExecutionTime = 514.19 s  ClockTime = 518 s

Time = 0.001625

Courant Number mean: 0.0374226 max: 1.14745
[INFO] MatrixAssemblyU: 1052.92 [ms]
DILUPBiCGStab:  Solving for Ux, Initial residual = 0.0536246, Final residual = 0.00384226, No Iterations 5
DILUPBiCGStab:  Solving for Uy, Initial residual = 0.242374, Final residual = 0.014219, No Iterations 5
DILUPBiCGStab:  Solving for Uz, Initial residual = 0.7267, Final residual = 0.0373694, No Iterations 5
linear solve U 7518.31 [ms]
[INFO] MomentumPredictor: 7905.3 [ms]
[INFO] MatrixAssemblyPI: 1174.25 [ms]
[INFO] AdjustPhi: 56.78 [ms]
[INFO] ConstrainPressure: 0.003 [ms]
[INFO] MatrixAssemblyPII: 328.741 [ms]
[OGL LOG][Proc: 0]: global_index_init: 0.032 [ms]
[OGL LOG][Proc: 0]p_local_coeffs: call_update: 0 [ms]
[OGL LOG][Proc: 0]p_non_local_coeffs: call_update: 0 [ms]
[OGL LOG][Proc: 0]p: update_local_matrix_data: 259.618 [ms]
[OGL LOG][Proc: 0]p: update_non_local_matrix_data: 3.378 [ms]
[OGL LOG][Proc: 0]p: update_build_repartitioner: 34.096 [ms]
[OGL LOG][Proc: 0]p: update_repartitioned_existing: 406.612 [ms]
[OGL LOG][Proc: 0]p: update_offload_local_values: 58.338 [ms]
[OGL LOG][Proc: 0]p: update_offload_non_local_values: 0.295 [ms]
[OGL LOG][Proc: 0]p_matrix: call_update: 499.747 [ms]
[OGL LOG][Proc: 0]p_rhs: call_update: 342.478 [ms]
[OGL LOG][Proc: 0]p: init_precond: 0.035 [ms]
[OGL LOG][StoppingCriterion.H:372] Creating stopping criterion with minIter 1800 frequency 10
[OGL LOG][Proc: 0]p: generate_solver: 0.023 [ms]
[OGL LOG][Proc: 0]p: solve: 14991.1 [ms]
[OGL LOG][Proc: 0]p: copy_x_back: 100.381 [ms]
[OGL LOG][lduLduBase.H:319] 
Statistics:
	Time per iteration: 4995 [mu s]
	Time per residual norm calculation: 435.000000 [mu s]
	Time per iteration and DOF: 0.078047 [ns]
	Retrieve results bandwith 0.637000 [GByte/s]
[OGL LOG][Proc: 0]p: solve_multi_gpu: 15934.6 [ms]
nonehipGKOCG:  Solving for p, Initial residual = 0.976867, Final residual = 0.000347647, No Iterations 3001
linear solve p 16240.6 [ms]
[INFO] SolveP: 16240.7 [ms]
time step continuity errors : sum local = 1.39933e-07, global = 1.36128e-21, cumulative = 9.82748e-21
[INFO] ContinuityError: 115.097 [ms]
[INFO] CorrectBoundary: 2.244 [ms]
[INFO] PISOStep: 18314.3 [ms]
[INFO] MatrixAssemblyPI: 1123.71 [ms]
[INFO] AdjustPhi: 71.749 [ms]
[INFO] ConstrainPressure: 0.004 [ms]
[INFO] MatrixAssemblyPII: 328.989 [ms]
[OGL LOG][Proc: 0]: global_index_init: 0.112 [ms]
[OGL LOG][Proc: 0]p_local_coeffs: call_update: 0 [ms]
[OGL LOG][Proc: 0]p_non_local_coeffs: call_update: 0 [ms]
[OGL LOG][Proc: 0]p: update_local_matrix_data: 258.541 [ms]
[OGL LOG][Proc: 0]p: update_non_local_matrix_data: 3.321 [ms]
[OGL LOG][Proc: 0]p: update_build_repartitioner: 87.103 [ms]
[OGL LOG][Proc: 0]p: update_repartitioned_existing: 405.849 [ms]
[OGL LOG][Proc: 0]p: update_offload_local_values: 57.293 [ms]
[OGL LOG][Proc: 0]p: update_offload_non_local_values: 0.39 [ms]
[OGL LOG][Proc: 0]p_matrix: call_update: 551.072 [ms]
[OGL LOG][Proc: 0]p_rhs: call_update: 371.198 [ms]
[OGL LOG][Proc: 0]p: init_precond: 0.04 [ms]
[OGL LOG][StoppingCriterion.H:372] Creating stopping criterion with minIter 1800 frequency 10
[OGL LOG][Proc: 0]p: generate_solver: 0.021 [ms]
[OGL LOG][Proc: 0]p: solve: 14955.6 [ms]
[OGL LOG][Proc: 0]p: copy_x_back: 94.155 [ms]
[OGL LOG][lduLduBase.H:319] 
Statistics:
	Time per iteration: 4983 [mu s]
	Time per residual norm calculation: 427.000000 [mu s]
	Time per iteration and DOF: 0.077859 [ns]
	Retrieve results bandwith 0.679000 [GByte/s]
[OGL LOG][Proc: 0]p: solve_multi_gpu: 15973 [ms]
nonehipGKOCG:  Solving for p, Initial residual = 0.920423, Final residual = 0.000329028, No Iterations 3001
linear solve p 16272.3 [ms]
[INFO] SolveP: 16272.4 [ms]
time step continuity errors : sum local = 1.3275e-07, global = 7.2156e-22, cumulative = 1.0549e-20
[INFO] ContinuityError: 122.554 [ms]
[INFO] CorrectBoundary: 1.619 [ms]
[INFO] PISOStep: 18327.3 [ms]
[INFO] TimeStep: 45739.7 [ms]
ExecutionTime = 559.66 s  ClockTime = 564 s

Time = 0.00175

Courant Number mean: 0.0384848 max: 1.02074
[INFO] MatrixAssemblyU: 1053.96 [ms]
DILUPBiCGStab:  Solving for Ux, Initial residual = 0.0615878, Final residual = 0.00414255, No Iterations 5
DILUPBiCGStab:  Solving for Uy, Initial residual = 0.252622, Final residual = 0.0135526, No Iterations 5
DILUPBiCGStab:  Solving for Uz, Initial residual = 0.731377, Final residual = 0.0370335, No Iterations 5
linear solve U 7557.85 [ms]
[INFO] MomentumPredictor: 7944.72 [ms]
[INFO] MatrixAssemblyPI: 1156.07 [ms]
[INFO] AdjustPhi: 86.094 [ms]
[INFO] ConstrainPressure: 0.003 [ms]
[INFO] MatrixAssemblyPII: 328.651 [ms]
[OGL LOG][Proc: 0]: global_index_init: 0.243 [ms]
[OGL LOG][Proc: 0]p_local_coeffs: call_update: 0 [ms]
[OGL LOG][Proc: 0]p_non_local_coeffs: call_update: 0 [ms]
[OGL LOG][Proc: 0]p: update_local_matrix_data: 258.225 [ms]
[OGL LOG][Proc: 0]p: update_non_local_matrix_data: 3.478 [ms]
[OGL LOG][Proc: 0]p: update_build_repartitioner: 43.851 [ms]
[OGL LOG][Proc: 0]p: update_repartitioned_existing: 406.537 [ms]
[OGL LOG][Proc: 0]p: update_offload_local_values: 55.348 [ms]
[OGL LOG][Proc: 0]p: update_offload_non_local_values: 0.527 [ms]
[OGL LOG][Proc: 0]p_matrix: call_update: 506.702 [ms]
[OGL LOG][Proc: 0]p_rhs: call_update: 364.564 [ms]
[OGL LOG][Proc: 0]p: init_precond: 0.055 [ms]
[OGL LOG][StoppingCriterion.H:372] Creating stopping criterion with minIter 1800 frequency 10
[OGL LOG][Proc: 0]p: generate_solver: 0.028 [ms]
[OGL LOG][Proc: 0]p: solve: 14990.1 [ms]
[OGL LOG][Proc: 0]p: copy_x_back: 97.408 [ms]
[OGL LOG][lduLduBase.H:319] 
Statistics:
	Time per iteration: 4995 [mu s]
	Time per residual norm calculation: 439.000000 [mu s]
	Time per iteration and DOF: 0.078047 [ns]
	Retrieve results bandwith 0.657000 [GByte/s]
[OGL LOG][Proc: 0]p: solve_multi_gpu: 15959.7 [ms]
nonehipGKOCG:  Solving for p, Initial residual = 0.977557, Final residual = 0.000308962, No Iterations 3001
linear solve p 16260 [ms]
[INFO] SolveP: 16260.1 [ms]
time step continuity errors : sum local = 1.4675e-07, global = 8.15186e-22, cumulative = 1.13642e-20
[INFO] ContinuityError: 128.038 [ms]
[INFO] CorrectBoundary: 5.009 [ms]
[INFO] PISOStep: 18357.9 [ms]
[INFO] MatrixAssemblyPI: 1123.77 [ms]
[INFO] AdjustPhi: 74.052 [ms]
[INFO] ConstrainPressure: 0.004 [ms]
[INFO] MatrixAssemblyPII: 328.523 [ms]
[OGL LOG][Proc: 0]: global_index_init: 0.26 [ms]
[OGL LOG][Proc: 0]p_local_coeffs: call_update: 0 [ms]
[OGL LOG][Proc: 0]p_non_local_coeffs: call_update: 0 [ms]
[OGL LOG][Proc: 0]p: update_local_matrix_data: 260.342 [ms]
[OGL LOG][Proc: 0]p: update_non_local_matrix_data: 3.083 [ms]
[OGL LOG][Proc: 0]p: update_build_repartitioner: 82.087 [ms]
[OGL LOG][Proc: 0]p: update_repartitioned_existing: 406.228 [ms]
[OGL LOG][Proc: 0]p: update_offload_local_values: 51.737 [ms]
[OGL LOG][Proc: 0]p: update_offload_non_local_values: 0.338 [ms]
[OGL LOG][Proc: 0]p_matrix: call_update: 540.831 [ms]
[OGL LOG][Proc: 0]p_rhs: call_update: 369.281 [ms]
[OGL LOG][Proc: 0]p: init_precond: 0.031 [ms]
[OGL LOG][StoppingCriterion.H:372] Creating stopping criterion with minIter 1800 frequency 10
[OGL LOG][Proc: 0]p: generate_solver: 0.031 [ms]
[OGL LOG][Proc: 0]p: solve: 15070.3 [ms]
[OGL LOG][Proc: 0]p: copy_x_back: 98.291 [ms]
[OGL LOG][lduLduBase.H:319] 
Statistics:
	Time per iteration: 5021 [mu s]
	Time per residual norm calculation: 419.000000 [mu s]
	Time per iteration and DOF: 0.078453 [ns]
	Retrieve results bandwith 0.651000 [GByte/s]
[OGL LOG][Proc: 0]p: solve_multi_gpu: 16079.7 [ms]
nonehipGKOCG:  Solving for p, Initial residual = 0.912957, Final residual = 0.000300174, No Iterations 3001
linear solve p 16380 [ms]
[INFO] SolveP: 16380.1 [ms]
time step continuity errors : sum local = 1.44126e-07, global = 7.33451e-22, cumulative = 1.20977e-20
[INFO] ContinuityError: 123.445 [ms]
[INFO] CorrectBoundary: 1.43 [ms]
[INFO] PISOStep: 18432.6 [ms]
[INFO] TimeStep: 45922.4 [ms]
ExecutionTime = 605.31 s  ClockTime = 609 s

Time = 0.001875

Courant Number mean: 0.039949 max: 1.6823
[INFO] MatrixAssemblyU: 1050.78 [ms]
DILUPBiCGStab:  Solving for Ux, Initial residual = 0.0685781, Final residual = 0.00424007, No Iterations 5
DILUPBiCGStab:  Solving for Uy, Initial residual = 0.285134, Final residual = 0.015066, No Iterations 5
DILUPBiCGStab:  Solving for Uz, Initial residual = 0.73927, Final residual = 0.0367578, No Iterations 5
linear solve U 7559.14 [ms]
[INFO] MomentumPredictor: 7945.63 [ms]
[INFO] MatrixAssemblyPI: 1170.29 [ms]
[INFO] AdjustPhi: 76.707 [ms]
[INFO] ConstrainPressure: 0.003 [ms]
[INFO] MatrixAssemblyPII: 329.445 [ms]
[OGL LOG][Proc: 0]: global_index_init: 0.032 [ms]
[OGL LOG][Proc: 0]p_local_coeffs: call_update: 0 [ms]
[OGL LOG][Proc: 0]p_non_local_coeffs: call_update: 0 [ms]
[OGL LOG][Proc: 0]p: update_local_matrix_data: 258.622 [ms]
[OGL LOG][Proc: 0]p: update_non_local_matrix_data: 3.421 [ms]
[OGL LOG][Proc: 0]p: update_build_repartitioner: 51.083 [ms]
[OGL LOG][Proc: 0]p: update_repartitioned_existing: 406.1 [ms]
[OGL LOG][Proc: 0]p: update_offload_local_values: 52.074 [ms]
[OGL LOG][Proc: 0]p: update_offload_non_local_values: 0.278 [ms]
[OGL LOG][Proc: 0]p_matrix: call_update: 510.419 [ms]
[OGL LOG][Proc: 0]p_rhs: call_update: 357.868 [ms]
[OGL LOG][Proc: 0]p: init_precond: 0.04 [ms]
[OGL LOG][StoppingCriterion.H:372] Creating stopping criterion with minIter 1800 frequency 10
[OGL LOG][Proc: 0]p: generate_solver: 0.031 [ms]
[OGL LOG][Proc: 0]p: solve: 15033.3 [ms]
[OGL LOG][Proc: 0]p: copy_x_back: 98.037 [ms]
[OGL LOG][lduLduBase.H:319] 
Statistics:
	Time per iteration: 5009 [mu s]
	Time per residual norm calculation: 427.000000 [mu s]
	Time per iteration and DOF: 0.078266 [ns]
	Retrieve results bandwith 0.652000 [GByte/s]
[OGL LOG][Proc: 0]p: solve_multi_gpu: 16000.6 [ms]
nonehipGKOCG:  Solving for p, Initial residual = 0.979672, Final residual = 0.000355391, No Iterations 3001
linear solve p 16304.9 [ms]
[INFO] SolveP: 16305 [ms]
time step continuity errors : sum local = 1.99098e-07, global = 1.71123e-22, cumulative = 1.22688e-20
[INFO] ContinuityError: 130.101 [ms]
[INFO] CorrectBoundary: 4.197 [ms]
[INFO] PISOStep: 18417.8 [ms]
[INFO] MatrixAssemblyPI: 1120.09 [ms]
[INFO] AdjustPhi: 71.551 [ms]
[INFO] ConstrainPressure: 0.004 [ms]
[INFO] MatrixAssemblyPII: 328.508 [ms]
[OGL LOG][Proc: 0]: global_index_init: 0.113 [ms]
[OGL LOG][Proc: 0]p_local_coeffs: call_update: 0 [ms]
[OGL LOG][Proc: 0]p_non_local_coeffs: call_update: 0 [ms]
[OGL LOG][Proc: 0]p: update_local_matrix_data: 259.677 [ms]
[OGL LOG][Proc: 0]p: update_non_local_matrix_data: 3.367 [ms]
[OGL LOG][Proc: 0]p: update_build_repartitioner: 83.359 [ms]
[OGL LOG][Proc: 0]p: update_repartitioned_existing: 407.147 [ms]
[OGL LOG][Proc: 0]p: update_offload_local_values: 51.606 [ms]
[OGL LOG][Proc: 0]p: update_offload_non_local_values: 0.252 [ms]
[OGL LOG][Proc: 0]p_matrix: call_update: 542.796 [ms]
[OGL LOG][Proc: 0]p_rhs: call_update: 384.133 [ms]
[OGL LOG][Proc: 0]p: init_precond: 0.031 [ms]
[OGL LOG][StoppingCriterion.H:372] Creating stopping criterion with minIter 1800 frequency 10
[OGL LOG][Proc: 0]p: generate_solver: 0.032 [ms]
[OGL LOG][Proc: 0]p: solve: 15053 [ms]
[OGL LOG][Proc: 0]p: copy_x_back: 97.031 [ms]
[OGL LOG][lduLduBase.H:319] 
Statistics:
	Time per iteration: 5015 [mu s]
	Time per residual norm calculation: 423.000000 [mu s]
	Time per iteration and DOF: 0.078359 [ns]
	Retrieve results bandwith 0.659000 [GByte/s]
[OGL LOG][Proc: 0]p: solve_multi_gpu: 16078 [ms]
nonehipGKOCG:  Solving for p, Initial residual = 0.920923, Final residual = 0.000335236, No Iterations 3001
linear solve p 16378 [ms]
[INFO] SolveP: 16378.1 [ms]
time step continuity errors : sum local = 1.88528e-07, global = 4.48332e-22, cumulative = 1.27171e-20
[INFO] ContinuityError: 120.964 [ms]
[INFO] CorrectBoundary: 2.135 [ms]
[INFO] PISOStep: 18425.2 [ms]
[INFO] TimeStep: 45981.7 [ms]
ExecutionTime = 650.97 s  ClockTime = 655 s

Time = 0.002

Courant Number mean: 0.040944 max: 1.7164
[INFO] MatrixAssemblyU: 1054.16 [ms]
DILUPBiCGStab:  Solving for Ux, Initial residual = 0.0799706, Final residual = 0.0046574, No Iterations 5
DILUPBiCGStab:  Solving for Uy, Initial residual = 0.301608, Final residual = 0.0148032, No Iterations 5
DILUPBiCGStab:  Solving for Uz, Initial residual = 0.743207, Final residual = 0.0366087, No Iterations 5
linear solve U 7546.82 [ms]
[INFO] MomentumPredictor: 7927.28 [ms]
[INFO] MatrixAssemblyPI: 1165.61 [ms]
[INFO] AdjustPhi: 77.228 [ms]
[INFO] ConstrainPressure: 0.003 [ms]
[INFO] MatrixAssemblyPII: 329.213 [ms]
[OGL LOG][Proc: 0]: global_index_init: 0.205 [ms]
[OGL LOG][Proc: 0]p_local_coeffs: call_update: 0 [ms]
[OGL LOG][Proc: 0]p_non_local_coeffs: call_update: 0 [ms]
[OGL LOG][Proc: 0]p: update_local_matrix_data: 260.076 [ms]
[OGL LOG][Proc: 0]p: update_non_local_matrix_data: 3.025 [ms]
[OGL LOG][Proc: 0]p: update_build_repartitioner: 57.613 [ms]
[OGL LOG][Proc: 0]p: update_repartitioned_existing: 407.032 [ms]
[OGL LOG][Proc: 0]p: update_offload_local_values: 56.876 [ms]
[OGL LOG][Proc: 0]p: update_offload_non_local_values: 0.641 [ms]
[OGL LOG][Proc: 0]p_matrix: call_update: 522.627 [ms]
[OGL LOG][Proc: 0]p_rhs: call_update: 340.793 [ms]
[OGL LOG][Proc: 0]p: init_precond: 0.06 [ms]
[OGL LOG][StoppingCriterion.H:372] Creating stopping criterion with minIter 1800 frequency 10
[OGL LOG][Proc: 0]p: generate_solver: 0.027 [ms]
[OGL LOG][Proc: 0]p: solve: 15007.8 [ms]
[OGL LOG][Proc: 0]p: copy_x_back: 98.308 [ms]
[OGL LOG][lduLduBase.H:319] 
Statistics:
	Time per iteration: 5000 [mu s]
	Time per residual norm calculation: 420.000000 [mu s]
	Time per iteration and DOF: 0.078125 [ns]
	Retrieve results bandwith 0.651000 [GByte/s]
[OGL LOG][Proc: 0]p: solve_multi_gpu: 15970.4 [ms]
nonehipGKOCG:  Solving for p, Initial residual = 0.980797, Final residual = 0.000332497, No Iterations 3001
linear solve p 16272.2 [ms]
[INFO] SolveP: 16272.2 [ms]
time step continuity errors : sum local = 2.20715e-07, global = 3.35732e-22, cumulative = 1.30529e-20
[INFO] ContinuityError: 131.057 [ms]
[INFO] CorrectBoundary: 5.884 [ms]
[INFO] PISOStep: 18379.4 [ms]
[INFO] MatrixAssemblyPI: 1124.14 [ms]
[INFO] AdjustPhi: 64.724 [ms]
[INFO] ConstrainPressure: 0.004 [ms]
[INFO] MatrixAssemblyPII: 329.118 [ms]
[OGL LOG][Proc: 0]: global_index_init: 0.255 [ms]
[OGL LOG][Proc: 0]p_local_coeffs: call_update: 0 [ms]
[OGL LOG][Proc: 0]p_non_local_coeffs: call_update: 0 [ms]
[OGL LOG][Proc: 0]p: update_local_matrix_data: 260.351 [ms]
[OGL LOG][Proc: 0]p: update_non_local_matrix_data: 3.306 [ms]
[OGL LOG][Proc: 0]p: update_build_repartitioner: 82.095 [ms]
[OGL LOG][Proc: 0]p: update_repartitioned_existing: 405.899 [ms]
[OGL LOG][Proc: 0]p: update_offload_local_values: 57.026 [ms]
[OGL LOG][Proc: 0]p: update_offload_non_local_values: 0.237 [ms]
[OGL LOG][Proc: 0]p_matrix: call_update: 545.658 [ms]
[OGL LOG][Proc: 0]p_rhs: call_update: 364.951 [ms]
[OGL LOG][Proc: 0]p: init_precond: 0.04 [ms]
[OGL LOG][StoppingCriterion.H:372] Creating stopping criterion with minIter 1800 frequency 10
[OGL LOG][Proc: 0]p: generate_solver: 0.021 [ms]
[OGL LOG][Proc: 0]p: solve: 14985.2 [ms]
[OGL LOG][Proc: 0]p: copy_x_back: 97.265 [ms]
[OGL LOG][lduLduBase.H:319] 
Statistics:
	Time per iteration: 4993 [mu s]
	Time per residual norm calculation: 410.000000 [mu s]
	Time per iteration and DOF: 0.078016 [ns]
	Retrieve results bandwith 0.657000 [GByte/s]
[OGL LOG][Proc: 0]p: solve_multi_gpu: 15994.1 [ms]
nonehipGKOCG:  Solving for p, Initial residual = 0.915982, Final residual = 0.000323931, No Iterations 3001
linear solve p 16296.2 [ms]
[INFO] SolveP: 16296.3 [ms]
time step continuity errors : sum local = 2.17184e-07, global = 5.66412e-22, cumulative = 1.36193e-20
[INFO] ContinuityError: 117.364 [ms]
[INFO] CorrectBoundary: 2.131 [ms]
[INFO] PISOStep: 18332.1 [ms]
[INFO] TimeStep: 45828.4 [ms]
ExecutionTime = 696.48 s  ClockTime = 701 s

Time = 0.002125

Courant Number mean: 0.0424457 max: 2.54822
[INFO] MatrixAssemblyU: 1052.19 [ms]
DILUPBiCGStab:  Solving for Ux, Initial residual = 0.0899938, Final residual = 0.00493418, No Iterations 5
DILUPBiCGStab:  Solving for Uy, Initial residual = 0.337199, Final residual = 0.0164443, No Iterations 5
DILUPBiCGStab:  Solving for Uz, Initial residual = 0.748016, Final residual = 0.0363159, No Iterations 5
linear solve U 7535.44 [ms]
[INFO] MomentumPredictor: 7922.98 [ms]
[INFO] MatrixAssemblyPI: 1165.06 [ms]
[INFO] AdjustPhi: 92.843 [ms]
[INFO] ConstrainPressure: 0.003 [ms]
[INFO] MatrixAssemblyPII: 329.74 [ms]
[OGL LOG][Proc: 0]: global_index_init: 0.026 [ms]
[OGL LOG][Proc: 0]p_local_coeffs: call_update: 0 [ms]
[OGL LOG][Proc: 0]p_non_local_coeffs: call_update: 0 [ms]
[OGL LOG][Proc: 0]p: update_local_matrix_data: 259.535 [ms]
[OGL LOG][Proc: 0]p: update_non_local_matrix_data: 3.056 [ms]
[OGL LOG][Proc: 0]p: update_build_repartitioner: 58.473 [ms]
[OGL LOG][Proc: 0]p: update_repartitioned_existing: 406.787 [ms]
[OGL LOG][Proc: 0]p: update_offload_local_values: 57.954 [ms]
[OGL LOG][Proc: 0]p: update_offload_non_local_values: 0.346 [ms]
[OGL LOG][Proc: 0]p_matrix: call_update: 523.992 [ms]
[OGL LOG][Proc: 0]p_rhs: call_update: 350.796 [ms]
[OGL LOG][Proc: 0]p: init_precond: 0.035 [ms]
[OGL LOG][StoppingCriterion.H:372] Creating stopping criterion with minIter 1800 frequency 10
[OGL LOG][Proc: 0]p: generate_solver: 0.027 [ms]
[OGL LOG][Proc: 0]p: solve: 14995.1 [ms]
[OGL LOG][Proc: 0]p: copy_x_back: 104.051 [ms]
[OGL LOG][lduLduBase.H:319] 
Statistics:
	Time per iteration: 4996 [mu s]
	Time per residual norm calculation: 459.000000 [mu s]
	Time per iteration and DOF: 0.078063 [ns]
	Retrieve results bandwith 0.615000 [GByte/s]
[OGL LOG][Proc: 0]p: solve_multi_gpu: 15974.9 [ms]
nonehipGKOCG:  Solving for p, Initial residual = 0.981866, Final residual = 0.000365734, No Iterations 3001
linear solve p 16280 [ms]
[INFO] SolveP: 16280.1 [ms]
time step continuity errors : sum local = 2.88562e-07, global = 1.13944e-21, cumulative = 1.47587e-20
[INFO] ContinuityError: 123.789 [ms]
[INFO] CorrectBoundary: 3.134 [ms]
[INFO] PISOStep: 18391.8 [ms]
[INFO] MatrixAssemblyPI: 1122.28 [ms]
[INFO] AdjustPhi: 65.097 [ms]
[INFO] ConstrainPressure: 0.005 [ms]
[INFO] MatrixAssemblyPII: 328.678 [ms]
[OGL LOG][Proc: 0]: global_index_init: 0.105 [ms]
[OGL LOG][Proc: 0]p_local_coeffs: call_update: 0 [ms]
[OGL LOG][Proc: 0]p_non_local_coeffs: call_update: 0 [ms]
[OGL LOG][Proc: 0]p: update_local_matrix_data: 261.538 [ms]
[OGL LOG][Proc: 0]p: update_non_local_matrix_data: 3.553 [ms]
[OGL LOG][Proc: 0]p: update_build_repartitioner: 79.886 [ms]
[OGL LOG][Proc: 0]p: update_repartitioned_existing: 406.942 [ms]
[OGL LOG][Proc: 0]p: update_offload_local_values: 55.51 [ms]
[OGL LOG][Proc: 0]p: update_offload_non_local_values: 0.343 [ms]
[OGL LOG][Proc: 0]p_matrix: call_update: 543.141 [ms]
[OGL LOG][Proc: 0]p_rhs: call_update: 343.691 [ms]
[OGL LOG][Proc: 0]p: init_precond: 0.03 [ms]
[OGL LOG][StoppingCriterion.H:372] Creating stopping criterion with minIter 1800 frequency 10
[OGL LOG][Proc: 0]p: generate_solver: 0.028 [ms]
[OGL LOG][Proc: 0]p: solve: 14956.7 [ms]
[OGL LOG][Proc: 0]p: copy_x_back: 95.974 [ms]
[OGL LOG][lduLduBase.H:319] 
Statistics:
	Time per iteration: 4983 [mu s]
	Time per residual norm calculation: 440.000000 [mu s]
	Time per iteration and DOF: 0.077859 [ns]
	Retrieve results bandwith 0.666000 [GByte/s]
[OGL LOG][Proc: 0]p: solve_multi_gpu: 15940.4 [ms]
nonehipGKOCG:  Solving for p, Initial residual = 0.92097, Final residual = 0.000344045, No Iterations 3001
linear solve p 16242.7 [ms]
[INFO] SolveP: 16242.7 [ms]
time step continuity errors : sum local = 2.72863e-07, global = 4.78214e-22, cumulative = 1.52369e-20
[INFO] ContinuityError: 118.271 [ms]
[INFO] CorrectBoundary: 1.616 [ms]
[INFO] PISOStep: 18283.2 [ms]
[INFO] TimeStep: 45795.7 [ms]
ExecutionTime = 742 s  ClockTime = 747 s

Time = 0.00225

Courant Number mean: 0.0434531 max: 2.85661
[INFO] MatrixAssemblyU: 1051.12 [ms]
DILUPBiCGStab:  Solving for Ux, Initial residual = 0.106317, Final residual = 0.00553801, No Iterations 5
DILUPBiCGStab:  Solving for Uy, Initial residual = 0.359937, Final residual = 0.0165471, No Iterations 5
DILUPBiCGStab:  Solving for Uz, Initial residual = 0.750865, Final residual = 0.0361662, No Iterations 5
linear solve U 7519.21 [ms]
[INFO] MomentumPredictor: 7908.53 [ms]
[INFO] MatrixAssemblyPI: 1141.44 [ms]
[INFO] AdjustPhi: 100.828 [ms]
[INFO] ConstrainPressure: 0.003 [ms]
[INFO] MatrixAssemblyPII: 329.531 [ms]
[OGL LOG][Proc: 0]: global_index_init: 0.233 [ms]
[OGL LOG][Proc: 0]p_local_coeffs: call_update: 0 [ms]
[OGL LOG][Proc: 0]p_non_local_coeffs: call_update: 0 [ms]
[OGL LOG][Proc: 0]p: update_local_matrix_data: 260.603 [ms]
[OGL LOG][Proc: 0]p: update_non_local_matrix_data: 3.346 [ms]
[OGL LOG][Proc: 0]p: update_build_repartitioner: 57.66 [ms]
[OGL LOG][Proc: 0]p: update_repartitioned_existing: 406.588 [ms]
[OGL LOG][Proc: 0]p: update_offload_local_values: 50.312 [ms]
[OGL LOG][Proc: 0]p: update_offload_non_local_values: 0.309 [ms]
[OGL LOG][Proc: 0]p_matrix: call_update: 515.286 [ms]
[OGL LOG][Proc: 0]p_rhs: call_update: 335.842 [ms]
[OGL LOG][Proc: 0]p: init_precond: 0.05 [ms]
[OGL LOG][StoppingCriterion.H:372] Creating stopping criterion with minIter 1800 frequency 10
[OGL LOG][Proc: 0]p: generate_solver: 0.021 [ms]
[OGL LOG][Proc: 0]p: solve: 15038.7 [ms]
[OGL LOG][Proc: 0]p: copy_x_back: 100.489 [ms]
[OGL LOG][lduLduBase.H:319] 
Statistics:
	Time per iteration: 5011 [mu s]
	Time per residual norm calculation: 428.000000 [mu s]
	Time per iteration and DOF: 0.078297 [ns]
	Retrieve results bandwith 0.636000 [GByte/s]
[OGL LOG][Proc: 0]p: solve_multi_gpu: 15991.2 [ms]
nonehipGKOCG:  Solving for p, Initial residual = 0.983069, Final residual = 0.000381104, No Iterations 3001
linear solve p 16294.1 [ms]
[INFO] SolveP: 16294.2 [ms]
time step continuity errors : sum local = 3.5887e-07, global = -1.44343e-22, cumulative = 1.50926e-20
[INFO] ContinuityError: 126.141 [ms]
[INFO] CorrectBoundary: 2.548 [ms]
[INFO] PISOStep: 18399.7 [ms]
[INFO] MatrixAssemblyPI: 1108.15 [ms]
[INFO] AdjustPhi: 79.552 [ms]
[INFO] ConstrainPressure: 0.004 [ms]
[INFO] MatrixAssemblyPII: 324.278 [ms]
[OGL LOG][Proc: 0]: global_index_init: 0.392 [ms]
[OGL LOG][Proc: 0]p_local_coeffs: call_update: 0 [ms]
[OGL LOG][Proc: 0]p_non_local_coeffs: call_update: 0 [ms]
[OGL LOG][Proc: 0]p: update_local_matrix_data: 253.133 [ms]
[OGL LOG][Proc: 0]p: update_non_local_matrix_data: 8.592 [ms]
[OGL LOG][Proc: 0]p: update_build_repartitioner: 81.195 [ms]
[OGL LOG][Proc: 0]p: update_repartitioned_existing: 406.636 [ms]
[OGL LOG][Proc: 0]p: update_offload_local_values: 56.728 [ms]
[OGL LOG][Proc: 0]p: update_offload_non_local_values: 0.329 [ms]
[OGL LOG][Proc: 0]p_matrix: call_update: 545.324 [ms]
[OGL LOG][Proc: 0]p_rhs: call_update: 346.612 [ms]
[OGL LOG][Proc: 0]p: init_precond: 0.037 [ms]
[OGL LOG][StoppingCriterion.H:372] Creating stopping criterion with minIter 1800 frequency 10
[OGL LOG][Proc: 0]p: generate_solver: 0.022 [ms]
[OGL LOG][Proc: 0]p: solve: 14993.7 [ms]
[OGL LOG][Proc: 0]p: copy_x_back: 95.175 [ms]
[OGL LOG][lduLduBase.H:319] 
Statistics:
	Time per iteration: 4996 [mu s]
	Time per residual norm calculation: 421.000000 [mu s]
	Time per iteration and DOF: 0.078063 [ns]
	Retrieve results bandwith 0.672000 [GByte/s]
[OGL LOG][Proc: 0]p: solve_multi_gpu: 15981.8 [ms]
nonehipGKOCG:  Solving for p, Initial residual = 0.918018, Final residual = 0.000357532, No Iterations 3001
linear solve p 16280.4 [ms]
[INFO] SolveP: 16280.4 [ms]
time step continuity errors : sum local = 3.39857e-07, global = 9.04729e-22, cumulative = 1.59973e-20
[INFO] ContinuityError: 123.368 [ms]
[INFO] CorrectBoundary: 2.258 [ms]
[INFO] PISOStep: 18323.4 [ms]
[INFO] TimeStep: 45817.4 [ms]
ExecutionTime = 787.5 s  ClockTime = 793 s

Time = 0.002375

Courant Number mean: 0.045075 max: 3.95952
[INFO] MatrixAssemblyU: 1049.88 [ms]
DILUPBiCGStab:  Solving for Ux, Initial residual = 0.120276, Final residual = 0.00602176, No Iterations 5
DILUPBiCGStab:  Solving for Uy, Initial residual = 0.396962, Final residual = 0.0183044, No Iterations 5
DILUPBiCGStab:  Solving for Uz, Initial residual = 0.753862, Final residual = 0.0361307, No Iterations 5
linear solve U 7525.92 [ms]
[INFO] MomentumPredictor: 7913.16 [ms]
[INFO] MatrixAssemblyPI: 1162.08 [ms]
[INFO] AdjustPhi: 76.585 [ms]
[INFO] ConstrainPressure: 0.003 [ms]
[INFO] MatrixAssemblyPII: 328.508 [ms]
[OGL LOG][Proc: 0]: global_index_init: 0.029 [ms]
[OGL LOG][Proc: 0]p_local_coeffs: call_update: 0 [ms]
[OGL LOG][Proc: 0]p_non_local_coeffs: call_update: 0 [ms]
[OGL LOG][Proc: 0]p: update_local_matrix_data: 260.185 [ms]
[OGL LOG][Proc: 0]p: update_non_local_matrix_data: 2.835 [ms]
[OGL LOG][Proc: 0]p: update_build_repartitioner: 56.736 [ms]
[OGL LOG][Proc: 0]p: update_repartitioned_existing: 406.372 [ms]
[OGL LOG][Proc: 0]p: update_offload_local_values: 57.667 [ms]
[OGL LOG][Proc: 0]p: update_offload_non_local_values: 0.233 [ms]
[OGL LOG][Proc: 0]p_matrix: call_update: 521.4 [ms]
[OGL LOG][Proc: 0]p_rhs: call_update: 366.043 [ms]
[OGL LOG][Proc: 0]p: init_precond: 0.032 [ms]
[OGL LOG][StoppingCriterion.H:372] Creating stopping criterion with minIter 1800 frequency 10
[OGL LOG][Proc: 0]p: generate_solver: 0.022 [ms]
[OGL LOG][Proc: 0]p: solve: 15021.7 [ms]
[OGL LOG][Proc: 0]p: copy_x_back: 97.498 [ms]
[OGL LOG][lduLduBase.H:319] 
Statistics:
	Time per iteration: 5005 [mu s]
	Time per residual norm calculation: 424.000000 [mu s]
	Time per iteration and DOF: 0.078203 [ns]
	Retrieve results bandwith 0.656000 [GByte/s]
[OGL LOG][Proc: 0]p: solve_multi_gpu: 16007.6 [ms]
nonehipGKOCG:  Solving for p, Initial residual = 0.983505, Final residual = 0.000355109, No Iterations 3001
linear solve p 16313 [ms]
[INFO] SolveP: 16313 [ms]
time step continuity errors : sum local = 4.00715e-07, global = -3.3232e-22, cumulative = 1.5665e-20
[INFO] ContinuityError: 124.004 [ms]
[INFO] CorrectBoundary: 2.31 [ms]
[INFO] PISOStep: 18411 [ms]
[INFO] MatrixAssemblyPI: 1118.7 [ms]
[INFO] AdjustPhi: 64.776 [ms]
[INFO] ConstrainPressure: 0.004 [ms]
[INFO] MatrixAssemblyPII: 328.959 [ms]
[OGL LOG][Proc: 0]: global_index_init: 0.058 [ms]
[OGL LOG][Proc: 0]p_local_coeffs: call_update: 0 [ms]
[OGL LOG][Proc: 0]p_non_local_coeffs: call_update: 0 [ms]
[OGL LOG][Proc: 0]p: update_local_matrix_data: 259.569 [ms]
[OGL LOG][Proc: 0]p: update_non_local_matrix_data: 3.685 [ms]
[OGL LOG][Proc: 0]p: update_build_repartitioner: 81.899 [ms]
[OGL LOG][Proc: 0]p: update_repartitioned_existing: 407.471 [ms]
[OGL LOG][Proc: 0]p: update_offload_local_values: 45.256 [ms]
[OGL LOG][Proc: 0]p: update_offload_non_local_values: 0.237 [ms]
[OGL LOG][Proc: 0]p_matrix: call_update: 535.259 [ms]
[OGL LOG][Proc: 0]p_rhs: call_update: 350.67 [ms]
[OGL LOG][Proc: 0]p: init_precond: 0.038 [ms]
[OGL LOG][StoppingCriterion.H:372] Creating stopping criterion with minIter 1800 frequency 10
[OGL LOG][Proc: 0]p: generate_solver: 0.022 [ms]
[OGL LOG][Proc: 0]p: solve: 15088.5 [ms]
[OGL LOG][Proc: 0]p: copy_x_back: 98.612 [ms]
[OGL LOG][lduLduBase.H:319] 
Statistics:
	Time per iteration: 5027 [mu s]
	Time per residual norm calculation: 418.000000 [mu s]
	Time per iteration and DOF: 0.078547 [ns]
	Retrieve results bandwith 0.649000 [GByte/s]
[OGL LOG][Proc: 0]p: solve_multi_gpu: 16074 [ms]
nonehipGKOCG:  Solving for p, Initial residual = 0.921247, Final residual = 0.000339086, No Iterations 3001
linear solve p 16374.6 [ms]
[INFO] SolveP: 16374.6 [ms]
time step continuity errors : sum local = 3.8503e-07, global = 1.14937e-21, cumulative = 1.68144e-20
[INFO] ContinuityError: 124.03 [ms]
[INFO] CorrectBoundary: 2.971 [ms]
[INFO] PISOStep: 18416.6 [ms]
[INFO] TimeStep: 45926.5 [ms]
ExecutionTime = 833.17 s  ClockTime = 839 s

Time = 0.0025

Courant Number mean: 0.0462031 max: 4.70462
[INFO] MatrixAssemblyU: 1051.28 [ms]
DILUPBiCGStab:  Solving for Ux, Initial residual = 0.143241, Final residual = 0.00688429, No Iterations 5
DILUPBiCGStab:  Solving for Uy, Initial residual = 0.424411, Final residual = 0.0186883, No Iterations 5
DILUPBiCGStab:  Solving for Uz, Initial residual = 0.75546, Final residual = 0.0357143, No Iterations 5
linear solve U 7518.34 [ms]
[INFO] MomentumPredictor: 7906.52 [ms]
[INFO] MatrixAssemblyPI: 1141.15 [ms]
[INFO] AdjustPhi: 97.022 [ms]
[INFO] ConstrainPressure: 0.004 [ms]
[INFO] MatrixAssemblyPII: 328.475 [ms]
[OGL LOG][Proc: 0]: global_index_init: 0.213 [ms]
[OGL LOG][Proc: 0]p_local_coeffs: call_update: 0 [ms]
[OGL LOG][Proc: 0]p_non_local_coeffs: call_update: 0 [ms]
[OGL LOG][Proc: 0]p: update_local_matrix_data: 260.563 [ms]
[OGL LOG][Proc: 0]p: update_non_local_matrix_data: 2.952 [ms]
[OGL LOG][Proc: 0]p: update_build_repartitioner: 84.769 [ms]
[OGL LOG][Proc: 0]p: update_repartitioned_existing: 407.882 [ms]
[OGL LOG][Proc: 0]p: update_offload_local_values: 51.197 [ms]
[OGL LOG][Proc: 0]p: update_offload_non_local_values: 0.239 [ms]
[OGL LOG][Proc: 0]p_matrix: call_update: 544.568 [ms]
[OGL LOG][Proc: 0]p_rhs: call_update: 364.632 [ms]
[OGL LOG][Proc: 0]p: init_precond: 0.044 [ms]
[OGL LOG][StoppingCriterion.H:372] Creating stopping criterion with minIter 1800 frequency 10
[OGL LOG][Proc: 0]p: generate_solver: 0.023 [ms]
[OGL LOG][Proc: 0]p: solve: 15005.1 [ms]
[OGL LOG][Proc: 0]p: copy_x_back: 98.457 [ms]
[OGL LOG][lduLduBase.H:319] 
Statistics:
	Time per iteration: 5000 [mu s]
	Time per residual norm calculation: 449.000000 [mu s]
	Time per iteration and DOF: 0.078125 [ns]
	Retrieve results bandwith 0.650000 [GByte/s]
[OGL LOG][Proc: 0]p: solve_multi_gpu: 16013.7 [ms]
nonehipGKOCG:  Solving for p, Initial residual = 0.984382, Final residual = 0.000394309, No Iterations 3001
linear solve p 16317.2 [ms]
[INFO] SolveP: 16317.3 [ms]
time step continuity errors : sum local = 5.34282e-07, global = 4.22751e-21, cumulative = 2.10419e-20
[INFO] ContinuityError: 121.758 [ms]
[INFO] CorrectBoundary: 2.235 [ms]
[INFO] PISOStep: 18413 [ms]
[INFO] MatrixAssemblyPI: 1119.07 [ms]
[INFO] AdjustPhi: 67.329 [ms]
[INFO] ConstrainPressure: 0.004 [ms]
[INFO] MatrixAssemblyPII: 328.994 [ms]
[OGL LOG][Proc: 0]: global_index_init: 0.272 [ms]
[OGL LOG][Proc: 0]p_local_coeffs: call_update: 0 [ms]
[OGL LOG][Proc: 0]p_non_local_coeffs: call_update: 0 [ms]
[OGL LOG][Proc: 0]p: update_local_matrix_data: 258.311 [ms]
[OGL LOG][Proc: 0]p: update_non_local_matrix_data: 3.535 [ms]
[OGL LOG][Proc: 0]p: update_build_repartitioner: 79.591 [ms]
[OGL LOG][Proc: 0]p: update_repartitioned_existing: 406.428 [ms]
[OGL LOG][Proc: 0]p: update_offload_local_values: 47.16 [ms]
[OGL LOG][Proc: 0]p: update_offload_non_local_values: 0.286 [ms]
[OGL LOG][Proc: 0]p_matrix: call_update: 533.896 [ms]
[OGL LOG][Proc: 0]p_rhs: call_update: 363.569 [ms]
[OGL LOG][Proc: 0]p: init_precond: 0.047 [ms]
[OGL LOG][StoppingCriterion.H:372] Creating stopping criterion with minIter 1800 frequency 10
[OGL LOG][Proc: 0]p: generate_solver: 0.025 [ms]
[OGL LOG][Proc: 0]p: solve: 14986.5 [ms]
[OGL LOG][Proc: 0]p: copy_x_back: 101.333 [ms]
[OGL LOG][lduLduBase.H:319] 
Statistics:
	Time per iteration: 4993 [mu s]
	Time per residual norm calculation: 417.000000 [mu s]
	Time per iteration and DOF: 0.078016 [ns]
	Retrieve results bandwith 0.631000 [GByte/s]
[OGL LOG][Proc: 0]p: solve_multi_gpu: 15986.3 [ms]
nonehipGKOCG:  Solving for p, Initial residual = 0.919366, Final residual = 0.000368339, No Iterations 3001
linear solve p 16284.9 [ms]
[INFO] SolveP: 16285 [ms]
time step continuity errors : sum local = 5.03687e-07, global = 2.54151e-22, cumulative = 2.1296e-20
[INFO] ContinuityError: 120.912 [ms]
[INFO] CorrectBoundary: 3.41 [ms]
[INFO] PISOStep: 18322.8 [ms]
[INFO] TimeStep: 45823.6 [ms]
ExecutionTime = 878.71 s  ClockTime = 885 s

End

Finalising parallel run
