/*---------------------------------------------------------------------------*\
| =========                 |                                                 |
| \\      /  F ield         | OpenFOAM: The Open Source CFD Toolbox           |
|  \\    /   O peration     | Version:  2306                                  |
|   \\  /    A nd           | Website:  www.openfoam.com                      |
|    \\/     M anipulation  |                                                 |
\*---------------------------------------------------------------------------*/
Build  : a6e826bd55-20230630 OPENFOAM=2306 version=v2306
Arch   : "LSB;label=32;scalar=64"
Exec   : simpleFoam -parallel -case /home/greole/data/code/exasim_project/micro_benchmarks/WindsorBody/workspace/ceaf881ff1091d3fe0a925966d53596d/case
Date   : Aug 27 2023
Time   : 10:27:04
Host   : nla-gpu2.ianm.kit.edu
PID    : 3054104
I/O    : uncollated
Case   : /home/greole/data/code/exasim_project/micro_benchmarks/WindsorBody/workspace/ceaf881ff1091d3fe0a925966d53596d/case
nProcs : 8
Hosts  :
(
    (nla-gpu2.ianm.kit.edu 8)
)
Pstream initialized with:
    floatTransfer      : false
    nProcsSimpleSum    : 0
    nonBlockingExchange: 0 (tuning: 0)
    exchange algorithm : -1
    commsType          : nonBlocking
    polling iterations : 0
trapFpe: Floating point exception trapping enabled (FOAM_SIGFPE).
fileModificationChecking : Monitoring run-time modified files using timeStampMaster (fileModificationSkew 5, maxFileModificationPolls 20)
allowSystemOperations : Allowing user-supplied system call operations

// * * * * * * * * * * * * * * * * * * * * * * * * * * * * * * * * * * * * * //
Create time

--> FOAM Warning : 
    From void* Foam::dlLibraryTable::openLibrary(const Foam::fileName&, bool)
    in file db/dynamicLibrary/dlLibraryTable/dlLibraryTable.C at line 188
    Could not load "libpetscFoam.so"
libpetscFoam.so: cannot open shared object file: No such file or directory
Create mesh for time = 0


SIMPLE: convergence criteria
    field p	 tolerance 1e-08
    field U	 tolerance 1e-08
    field k	 tolerance 1e-08
    field omega	 tolerance 1e-08
    field nuTilda	 tolerance 1e-08

Reading field p

Reading field U

Reading/calculating face flux field phi

Selecting incompressible transport model Newtonian
Selecting turbulence model type RAS
Selecting RAS turbulence model SpalartAllmaras
Selecting patchDistMethod meshWave
ft2 term: inactive
RAS
{
    RASModel        SpalartAllmaras;
    turbulence      on;
    printCoeffs     on;
    sigmaNut        0.66666;
    kappa           0.41;
    Cb1             0.1355;
    Cb2             0.622;
    Cw2             0.3;
    Cw3             2;
    Cv1             7.1;
    Cs              0.3;
    ck              0.07000000000000001;
    ft2             false;
    Ct3             1.2;
    Ct4             0.5;
}

No MRF models present

Creating finite volume options from "system/fvOptions"

Selecting finite volume options type velocityDampingConstraint
    Source: velocityDamping
    - selecting all cells
    - selected 25228544 cell(s) with volume 111.3033220638994

Starting time loop

--> FOAM Warning : 
    From bool Foam::functionObjectList::read()
    in file db/functionObjects/functionObjectList/functionObjectList.C at line 1035
    Reading "system/controlDict" at line 2 to 41
    Entry 'lref' is not a dictionary
--> FOAM Warning : 
    From bool Foam::functionObjectList::read()
    in file db/functionObjects/functionObjectList/functionObjectList.C at line 1035
    Reading "system/controlDict" at line 2 to 41
    Entry 'Aref' is not a dictionary
--> FOAM Warning : 
    From bool Foam::functionObjectList::read()
    in file db/functionObjects/functionObjectList/functionObjectList.C at line 1035
    Reading "system/controlDict" at line 2 to 41
    Entry 'yawAngle' is not a dictionary
--> FOAM Warning : 
    From bool Foam::functionObjectList::read()
    in file db/functionObjects/functionObjectList/functionObjectList.C at line 1035
    Reading "system/controlDict" at line 2 to 41
    Entry 'lDomain' is not a dictionary
--> FOAM Warning : 
    From bool Foam::functionObjectList::read()
    in file db/functionObjects/functionObjectList/functionObjectList.C at line 1035
    Reading "system/controlDict" at line 2 to 41
    Entry 'bDomain' is not a dictionary
--> FOAM Warning : 
    From bool Foam::functionObjectList::read()
    in file db/functionObjects/functionObjectList/functionObjectList.C at line 1035
    Reading "system/controlDict" at line 2 to 41
    Entry 'hDomain' is not a dictionary
--> FOAM Warning : 
    From bool Foam::functionObjectList::read()
    in file db/functionObjects/functionObjectList/functionObjectList.C at line 1035
    Reading "system/controlDict" at line 2 to 41
    Entry 'xCenter' is not a dictionary
--> FOAM Warning : 
    From bool Foam::functionObjectList::read()
    in file db/functionObjects/functionObjectList/functionObjectList.C at line 1035
    Reading "system/controlDict" at line 2 to 41
    Entry 'yCenter' is not a dictionary
--> FOAM Warning : 
    From bool Foam::functionObjectList::read()
    in file db/functionObjects/functionObjectList/functionObjectList.C at line 1035
    Reading "system/controlDict" at line 2 to 41
    Entry 'zCenter' is not a dictionary
--> FOAM Warning : 
    From bool Foam::functionObjectList::read()
    in file db/functionObjects/functionObjectList/functionObjectList.C at line 1035
    Reading "system/controlDict" at line 2 to 41
    Entry 'inletPatch' is not a dictionary
--> FOAM Warning : 
    From bool Foam::functionObjectList::read()
    in file db/functionObjects/functionObjectList/functionObjectList.C at line 1035
    Reading "system/controlDict" at line 2 to 41
    Entry 'outletPatch' is not a dictionary
--> FOAM Warning : 
    From bool Foam::functionObjectList::read()
    in file db/functionObjects/functionObjectList/functionObjectList.C at line 1035
    Reading "system/controlDict" at line 2 to 41
    Entry 'wallPatches' is not a dictionary
--> FOAM Warning : 
    From bool Foam::functionObjectList::read()
    in file db/functionObjects/functionObjectList/functionObjectList.C at line 1035
    Reading "system/controlDict" at line 2 to 41
    Entry 'forcesWallPatches' is not a dictionary
--> FOAM Warning : 
    From bool Foam::functionObjectList::read()
    in file db/functionObjects/functionObjectList/functionObjectList.C at line 1035
    Reading "system/controlDict" at line 2 to 41
    Entry 'symmPatches' is not a dictionary
--> FOAM Warning : 
    From bool Foam::functionObjectList::read()
    in file db/functionObjects/functionObjectList/functionObjectList.C at line 1035
    Reading "system/controlDict" at line 2 to 41
    Entry 'Uinf' is not a dictionary
--> FOAM Warning : 
    From bool Foam::functionObjectList::read()
    in file db/functionObjects/functionObjectList/functionObjectList.C at line 1035
    Reading "system/controlDict" at line 2 to 41
    Entry 'UinfMag' is not a dictionary
--> FOAM Warning : 
    From bool Foam::functionObjectList::read()
    in file db/functionObjects/functionObjectList/functionObjectList.C at line 1035
    Reading "system/controlDict" at line 2 to 41
    Entry 'nu' is not a dictionary
--> FOAM Warning : 
    From bool Foam::functionObjectList::read()
    in file db/functionObjects/functionObjectList/functionObjectList.C at line 1035
    Reading "system/controlDict" at line 2 to 41
    Entry 'pref' is not a dictionary
--> FOAM Warning : 
    From bool Foam::functionObjectList::read()
    in file db/functionObjects/functionObjectList/functionObjectList.C at line 1035
    Reading "system/controlDict" at line 2 to 41
    Entry 'viscRatio' is not a dictionary
--> FOAM Warning : 
    From bool Foam::functionObjectList::read()
    in file db/functionObjects/functionObjectList/functionObjectList.C at line 1035
    Reading "system/controlDict" at line 2 to 41
    Entry 'Tu' is not a dictionary
--> FOAM Warning : 
    From bool Foam::functionObjectList::read()
    in file db/functionObjects/functionObjectList/functionObjectList.C at line 1035
    Reading "system/controlDict" at line 2 to 41
    Entry 'LESturbModel' is not a dictionary
--> FOAM Warning : 
    From bool Foam::functionObjectList::read()
    in file db/functionObjects/functionObjectList/functionObjectList.C at line 1035
    Reading "system/controlDict" at line 2 to 41
    Entry 'RASturbModel' is not a dictionary
--> FOAM Warning : 
    From bool Foam::functionObjectList::read()
    in file db/functionObjects/functionObjectList/functionObjectList.C at line 1035
    Reading "system/controlDict" at line 2 to 41
    Entry 'deltaTurb' is not a dictionary
--> FOAM Warning : 
    From bool Foam::functionObjectList::read()
    in file db/functionObjects/functionObjectList/functionObjectList.C at line 1035
    Reading "system/controlDict" at line 2 to 41
    Entry 'dt' is not a dictionary
--> FOAM Warning : 
    From bool Foam::functionObjectList::read()
    in file db/functionObjects/functionObjectList/functionObjectList.C at line 1035
    Reading "system/controlDict" at line 2 to 41
    Entry 'tAvg' is not a dictionary
--> FOAM Warning : 
    From bool Foam::functionObjectList::read()
    in file db/functionObjects/functionObjectList/functionObjectList.C at line 1035
    Reading "system/controlDict" at line 2 to 41
    Entry 'tEnd' is not a dictionary
--> FOAM Warning : 
    From bool Foam::functionObjectList::read()
    in file db/functionObjects/functionObjectList/functionObjectList.C at line 1035
    Reading "system/controlDict" at line 2 to 41
    Entry 'writeInterval_' is not a dictionary
--> FOAM Warning : 
    From bool Foam::functionObjectList::read()
    in file db/functionObjects/functionObjectList/functionObjectList.C at line 1035
    Reading "system/controlDict" at line 2 to 41
    Entry 'nCores' is not a dictionary
--> FOAM Warning : 
    From bool Foam::functionObjectList::read()
    in file db/functionObjects/functionObjectList/functionObjectList.C at line 1035
    Reading "system/controlDict" at line 2 to 41
    Entry 'interpScheme' is not a dictionary
--> FOAM Warning : 
    From bool Foam::functionObjectList::read()
    in file db/functionObjects/functionObjectList/functionObjectList.C at line 1035
    Reading "system/controlDict" at line 2 to 41
    Entry 'probeField' is not a dictionary
wallShearStress wallShearStress:
    processing wall patches: 
        Windsor_Body
        CFDWT_Floor
        Windsor_Pins
        Windsor_Base
        Windsor_Body_2
        CFDWT_Floor_2
        Windsor_Pins_2
        Windsor_Base_2
        Windsor_Body_3
        CFDWT_Floor_3
        Windsor_Pins_3
        Windsor_Base_3
        Windsor_Body_4
        CFDWT_Floor_4
        Windsor_Pins_4
        Windsor_Base_4

pressure calc_cp:
    Operating mode: staticCoeff
    Not including hydrostatic effects

forceCoeffs forceCoeffsAll:
    rho: rhoInf
    Freestream density (rhoInf) set to 1
    Not including porosity effects
    magUInf: 40
    lRef   : 0.6375
    Aref   : 0.1124
    rhoInf : 1
    Selecting all coefficients
    - Drag force: Cd
    - Drag force front: Cd(f)
    - Drag force rear: Cd(r)
    - Lift force: Cl
    - Lift force front: Cl(f)
    - Lift force rear: Cl(r)
    - Pitch moment: CmPitch
    - Roll moment: CmRoll
    - Yaw moment: CmYaw
    - Side force: Cs
    - Side force front: Cs(f)
    - Side force rear: Cs(r)


forceCoeffs dragCoeffBase:
    rho: rhoInf
    Freestream density (rhoInf) set to 1
    Not including porosity effects
    magUInf: 40
    lRef   : 0.6375
    Aref   : 0.1124
    rhoInf : 1
    Selecting coefficients:
    - Drag force: Cd


Time = 1

velocityDampingConstraint velocityDamping damped 0 (0%) of cells, with max limit 300
[INFO] MatrixAssemblyU: 3376.178 [ms]
smoothSolver:  Solving for Ux, Initial residual = 0.9999999999996109, Final residual = 0.08731557002068803, No Iterations 15
smoothSolver:  Solving for Uy, Initial residual = 1, Final residual = 0.08968697005203881, No Iterations 31
smoothSolver:  Solving for Uz, Initial residual = 1, Final residual = 0.03285812342545615, No Iterations 2
[INFO] MomentumPredictor: 3229.476 [ms]
[INFO] MatrixAssemblyPI: 455.245 [ms]
[INFO] MatrixAssemblyPII: 227.93 [ms]
DICPCG:  Solving for p, Initial residual = 1, Final residual = 0.009601614087247912, No Iterations 416
[INFO] SolveP: 30554.132 [ms]
time step continuity errors : sum local = 0.003522882542057215, global = 8.582524204073911e-05, cumulative = 8.582524204073911e-05
[INFO] postSolveP: 126.257 [ms]
smoothSolver:  Solving for nuTilda, Initial residual = 0.9999999962130529, Final residual = 0.06429007319503789, No Iterations 3
[INFO] TimeStep: 39927.994 [ms]
ExecutionTime = 83.45 s  ClockTime = 84 s

--> FOAM Warning : 
    From virtual bool Foam::functionObjects::fieldSelection::checkSelection()
    in file functionObjects/fieldSelections/fieldSelection/fieldSelection.C at line 166
    Field k not found
--> FOAM Warning : 
    From virtual bool Foam::functionObjects::fieldSelection::checkSelection()
    in file functionObjects/fieldSelections/fieldSelection/fieldSelection.C at line 166
    Field gammaInt not found
--> FOAM Warning : 
    From virtual bool Foam::functionObjects::fieldSelection::checkSelection()
    in file functionObjects/fieldSelections/fieldSelection/fieldSelection.C at line 166
    Field omega not found
--> FOAM Warning : 
    From virtual bool Foam::functionObjects::fieldSelection::checkSelection()
    in file functionObjects/fieldSelections/fieldSelection/fieldSelection.C at line 166
    Field ReThetat not found
--> FOAM Warning : 
    From virtual bool Foam::functionObjects::fieldSelection::checkSelection()
    in file functionObjects/fieldSelections/fieldSelection/fieldSelection.C at line 166
    Field epsilon not found
--> FOAM Warning : 
    From virtual bool Foam::functionObjects::solverFieldSelection::updateSelection()
    in file functionObjects/fieldSelections/solverFieldSelection/solverFieldSelection.C at line 85
    Valid solver fields are: 3(U nuTilda p)Time = 2

velocityDampingConstraint velocityDamping damped 0 (0%) of cells, with max limit 300
[INFO] MatrixAssemblyU: 3247.562 [ms]
smoothSolver:  Solving for Ux, Initial residual = 0.2130775862664799, Final residual = 0.01838201641321963, No Iterations 13
smoothSolver:  Solving for Uy, Initial residual = 0.3544429460636367, Final residual = 0.03302784718296783, No Iterations 13
smoothSolver:  Solving for Uz, Initial residual = 0.3287583888973452, Final residual = 0.02811373396202096, No Iterations 13
[INFO] MomentumPredictor: 2682.998 [ms]
[INFO] MatrixAssemblyPI: 454.918 [ms]
[INFO] MatrixAssemblyPII: 228.77 [ms]
DICPCG:  Solving for p, Initial residual = 0.2098684531927474, Final residual = 0.002061103803990209, No Iterations 335
[INFO] SolveP: 24469.67 [ms]
time step continuity errors : sum local = 0.04223646174314443, global = 0.001738533296706148, cumulative = 0.001824358538746887
[INFO] postSolveP: 125.599 [ms]
smoothSolver:  Solving for nuTilda, Initial residual = 0.4060152108947508, Final residual = 0.02532140408899616, No Iterations 1
[INFO] TimeStep: 33087.214 [ms]
ExecutionTime = 119.06 s  ClockTime = 119 s

Time = 3

velocityDampingConstraint velocityDamping damped 3325 (0.01%) of cells, with max limit 300
[INFO] MatrixAssemblyU: 3336.014 [ms]
smoothSolver:  Solving for Ux, Initial residual = 0.1246654568292361, Final residual = 0.0117451698179004, No Iterations 9
smoothSolver:  Solving for Uy, Initial residual = 0.2050450775390661, Final residual = 0.01959795614777123, No Iterations 10
smoothSolver:  Solving for Uz, Initial residual = 0.2189655714902673, Final residual = 0.02135233549684476, No Iterations 9
[INFO] MomentumPredictor: 2046.026 [ms]
[INFO] MatrixAssemblyPI: 457.6 [ms]
[INFO] MatrixAssemblyPII: 228.719 [ms]
DICPCG:  Solving for p, Initial residual = 0.1186442864393774, Final residual = 0.001151372026354116, No Iterations 186
[INFO] SolveP: 13689.969 [ms]
time step continuity errors : sum local = 0.01286244351094459, global = -0.0009816126038465264, cumulative = 0.0008427459349003607
[INFO] postSolveP: 124.665 [ms]
smoothSolver:  Solving for nuTilda, Initial residual = 0.2091127347095846, Final residual = 0.01312724959786672, No Iterations 2
[INFO] TimeStep: 21814.701 [ms]
ExecutionTime = 143.52 s  ClockTime = 144 s

Time = 4

velocityDampingConstraint velocityDamping damped 0 (0%) of cells, with max limit 300
[INFO] MatrixAssemblyU: 3324.789 [ms]
smoothSolver:  Solving for Ux, Initial residual = 0.05386665410160474, Final residual = 0.004957537470126657, No Iterations 11
smoothSolver:  Solving for Uy, Initial residual = 0.1227928361195345, Final residual = 0.01101889439229408, No Iterations 11
smoothSolver:  Solving for Uz, Initial residual = 0.133772844017266, Final residual = 0.01307702001072974, No Iterations 10
[INFO] MomentumPredictor: 2276.849 [ms]
[INFO] MatrixAssemblyPI: 455.595 [ms]
[INFO] MatrixAssemblyPII: 228.534 [ms]
DICPCG:  Solving for p, Initial residual = 0.1348212105597756, Final residual = 0.001347707851325711, No Iterations 108
[INFO] SolveP: 7954.257 [ms]
time step continuity errors : sum local = 0.01342729070536871, global = -0.002144663457014488, cumulative = -0.001301917522114127
[INFO] postSolveP: 124.374 [ms]
smoothSolver:  Solving for nuTilda, Initial residual = 0.1246590613305472, Final residual = 0.01050375603431093, No Iterations 2
[INFO] TimeStep: 16275.464 [ms]
ExecutionTime = 162.46 s  ClockTime = 163 s

Time = 5

velocityDampingConstraint velocityDamping damped 451 (0%) of cells, with max limit 300
[INFO] MatrixAssemblyU: 3288.054 [ms]
smoothSolver:  Solving for Ux, Initial residual = 0.04351877286222993, Final residual = 0.004191620108926629, No Iterations 10
smoothSolver:  Solving for Uy, Initial residual = 0.09761416782843554, Final residual = 0.009311006832183543, No Iterations 11
smoothSolver:  Solving for Uz, Initial residual = 0.1134415319401577, Final residual = 0.009559684949183843, No Iterations 11
[INFO] MomentumPredictor: 2281.195 [ms]
[INFO] MatrixAssemblyPI: 457.61 [ms]
[INFO] MatrixAssemblyPII: 227.745 [ms]
DICPCG:  Solving for p, Initial residual = 0.09721498469039856, Final residual = 0.0009589781271084933, No Iterations 228
[INFO] SolveP: 16668.302 [ms]
time step continuity errors : sum local = 0.007582824492042592, global = -0.0002529872330616199, cumulative = -0.001554904755175747
[INFO] postSolveP: 124.939 [ms]
smoothSolver:  Solving for nuTilda, Initial residual = 0.07086408840001361, Final residual = 0.004308003429088441, No Iterations 3
[INFO] TimeStep: 25006.175 [ms]
ExecutionTime = 190.04 s  ClockTime = 191 s

Time = 6

velocityDampingConstraint velocityDamping damped 0 (0%) of cells, with max limit 300
[INFO] MatrixAssemblyU: 3264.734 [ms]
smoothSolver:  Solving for Ux, Initial residual = 0.02997686010133897, Final residual = 0.002653982692984349, No Iterations 12
smoothSolver:  Solving for Uy, Initial residual = 0.07459647589827968, Final residual = 0.006865669508563861, No Iterations 12
smoothSolver:  Solving for Uz, Initial residual = 0.08081816746668567, Final residual = 0.006856281664306772, No Iterations 12
[INFO] MomentumPredictor: 2504.37 [ms]
[INFO] MatrixAssemblyPI: 456.346 [ms]
[INFO] MatrixAssemblyPII: 228.605 [ms]
DICPCG:  Solving for p, Initial residual = 0.09794421496578934, Final residual = 0.0009780713866220819, No Iterations 137
[INFO] SolveP: 10119.814 [ms]
time step continuity errors : sum local = 0.007092005662247604, global = 0.0006986672863338216, cumulative = -0.0008562374688419256
[INFO] postSolveP: 124.848 [ms]
smoothSolver:  Solving for nuTilda, Initial residual = 0.06424071021521827, Final residual = 0.003002306073149556, No Iterations 3
[INFO] TimeStep: 18648.119 [ms]
ExecutionTime = 211.29 s  ClockTime = 212 s

Time = 7

velocityDampingConstraint velocityDamping damped 60 (0%) of cells, with max limit 300
[INFO] MatrixAssemblyU: 3232.331 [ms]
smoothSolver:  Solving for Ux, Initial residual = 0.02723384263042814, Final residual = 0.002427795469907964, No Iterations 12
smoothSolver:  Solving for Uy, Initial residual = 0.06744547473788599, Final residual = 0.006370743527122112, No Iterations 12
smoothSolver:  Solving for Uz, Initial residual = 0.07102691338004689, Final residual = 0.00617616404939366, No Iterations 12
[INFO] MomentumPredictor: 2516.573 [ms]
[INFO] MatrixAssemblyPI: 455.092 [ms]
[INFO] MatrixAssemblyPII: 228.2 [ms]
DICPCG:  Solving for p, Initial residual = 0.0834953262715763, Final residual = 0.0008228152621526951, No Iterations 122
[INFO] SolveP: 8997.903 [ms]
time step continuity errors : sum local = 0.005981803177349897, global = 0.0009661696793710986, cumulative = 0.000109932210529173
[INFO] postSolveP: 125.624 [ms]
smoothSolver:  Solving for nuTilda, Initial residual = 0.04909260543077191, Final residual = 0.003228621757981619, No Iterations 3
[INFO] TimeStep: 17499.877 [ms]
ExecutionTime = 231.35 s  ClockTime = 232 s

Time = 8

velocityDampingConstraint velocityDamping damped 0 (0%) of cells, with max limit 300
[INFO] MatrixAssemblyU: 3216.47 [ms]
smoothSolver:  Solving for Ux, Initial residual = 0.02312077271898066, Final residual = 0.002136042547028737, No Iterations 12
smoothSolver:  Solving for Uy, Initial residual = 0.05991246193646444, Final residual = 0.005868551229675328, No Iterations 12
smoothSolver:  Solving for Uz, Initial residual = 0.06176714845562609, Final residual = 0.005566271868560874, No Iterations 12
[INFO] MomentumPredictor: 2511.844 [ms]
[INFO] MatrixAssemblyPI: 455.539 [ms]
[INFO] MatrixAssemblyPII: 228.591 [ms]
DICPCG:  Solving for p, Initial residual = 0.07530688611992363, Final residual = 0.0007414592210893202, No Iterations 118
[INFO] SolveP: 8725.362999999999 [ms]
time step continuity errors : sum local = 0.005505363208636675, global = 0.00112980467452007, cumulative = 0.001239736885049243
[INFO] postSolveP: 127.416 [ms]
smoothSolver:  Solving for nuTilda, Initial residual = 0.06534710903914215, Final residual = 0.005859553519736127, No Iterations 2
[INFO] TimeStep: 17149.073 [ms]
ExecutionTime = 251.06 s  ClockTime = 252 s

Time = 9

velocityDampingConstraint velocityDamping damped 0 (0%) of cells, with max limit 300
[INFO] MatrixAssemblyU: 3204.018 [ms]
smoothSolver:  Solving for Ux, Initial residual = 0.02035889118759043, Final residual = 0.001898159695978787, No Iterations 12
smoothSolver:  Solving for Uy, Initial residual = 0.05415725294471473, Final residual = 0.005387649685382151, No Iterations 12
smoothSolver:  Solving for Uz, Initial residual = 0.05503942841110551, Final residual = 0.005100901880592751, No Iterations 12
[INFO] MomentumPredictor: 2509.175 [ms]
[INFO] MatrixAssemblyPI: 454.552 [ms]
[INFO] MatrixAssemblyPII: 228.686 [ms]
DICPCG:  Solving for p, Initial residual = 0.06848398420880408, Final residual = 0.0006770713912198267, No Iterations 120
[INFO] SolveP: 8833.686 [ms]
time step continuity errors : sum local = 0.005110097296286512, global = 0.001298090887760918, cumulative = 0.002537827772810161
[INFO] postSolveP: 124.963 [ms]
smoothSolver:  Solving for nuTilda, Initial residual = 0.04411811236110385, Final residual = 0.003200300412127968, No Iterations 3
[INFO] TimeStep: 17293.226 [ms]
ExecutionTime = 270.9 s  ClockTime = 272 s

Time = 10

velocityDampingConstraint velocityDamping damped 0 (0%) of cells, with max limit 300
[INFO] MatrixAssemblyU: 3202.61 [ms]
smoothSolver:  Solving for Ux, Initial residual = 0.0183399693576283, Final residual = 0.001723798407351786, No Iterations 12
smoothSolver:  Solving for Uy, Initial residual = 0.05004289829833155, Final residual = 0.004965862975518077, No Iterations 12
smoothSolver:  Solving for Uz, Initial residual = 0.05046261129729131, Final residual = 0.004737796099434023, No Iterations 12
[INFO] MomentumPredictor: 2510.632 [ms]
[INFO] MatrixAssemblyPI: 455.519 [ms]
[INFO] MatrixAssemblyPII: 228.287 [ms]
DICPCG:  Solving for p, Initial residual = 0.0620317895700814, Final residual = 0.0006034441586243824, No Iterations 227
[INFO] SolveP: 16685.768 [ms]
time step continuity errors : sum local = 0.004554459441492729, global = 9.309096972391777e-05, cumulative = 0.002630918742534078
[INFO] postSolveP: 126.608 [ms]
smoothSolver:  Solving for nuTilda, Initial residual = 0.06967606707371303, Final residual = 0.005486328817055363, No Iterations 2
[INFO] TimeStep: 25089.668 [ms]
ExecutionTime = 298.49 s  ClockTime = 300 s

Time = 11

velocityDampingConstraint velocityDamping damped 0 (0%) of cells, with max limit 300
[INFO] MatrixAssemblyU: 3194.505 [ms]
smoothSolver:  Solving for Ux, Initial residual = 0.01672841586043598, Final residual = 0.00159773502930449, No Iterations 12
smoothSolver:  Solving for Uy, Initial residual = 0.04755391195721324, Final residual = 0.004689978024026013, No Iterations 12
smoothSolver:  Solving for Uz, Initial residual = 0.04755720156729341, Final residual = 0.004501553080989331, No Iterations 12
[INFO] MomentumPredictor: 2514.311 [ms]
[INFO] MatrixAssemblyPI: 455.06 [ms]
[INFO] MatrixAssemblyPII: 227.611 [ms]
DICPCG:  Solving for p, Initial residual = 0.05425421066318886, Final residual = 0.0005323060906125366, No Iterations 108
[INFO] SolveP: 7970.222 [ms]
time step continuity errors : sum local = 0.004286513041715335, global = -0.0006538775062302017, cumulative = 0.001977041236303877
[INFO] postSolveP: 126.811 [ms]
smoothSolver:  Solving for nuTilda, Initial residual = 0.03911909022353791, Final residual = 0.003025404013878071, No Iterations 3
[INFO] TimeStep: 16421.205 [ms]
ExecutionTime = 317.45 s  ClockTime = 319 s

Time = 12

velocityDampingConstraint velocityDamping damped 0 (0%) of cells, with max limit 300
[INFO] MatrixAssemblyU: 3189.462 [ms]
smoothSolver:  Solving for Ux, Initial residual = 0.01551357836446439, Final residual = 0.001511243291172022, No Iterations 12
smoothSolver:  Solving for Uy, Initial residual = 0.04524812587628962, Final residual = 0.004424333601459794, No Iterations 12
smoothSolver:  Solving for Uz, Initial residual = 0.0447506001191308, Final residual = 0.004254328569817899, No Iterations 12
[INFO] MomentumPredictor: 2511.094 [ms]
[INFO] MatrixAssemblyPI: 455.996 [ms]
[INFO] MatrixAssemblyPII: 230.656 [ms]
DICPCG:  Solving for p, Initial residual = 0.0513602385406641, Final residual = 0.0004988832851342383, No Iterations 120
[INFO] SolveP: 8848.550999999999 [ms]
time step continuity errors : sum local = 0.003963411421155192, global = -0.0008786576780303488, cumulative = 0.001098383558273528
[INFO] postSolveP: 125.641 [ms]
smoothSolver:  Solving for nuTilda, Initial residual = 0.06549669888980446, Final residual = 0.005099245050665569, No Iterations 2
[INFO] TimeStep: 17235.878 [ms]
ExecutionTime = 337.21 s  ClockTime = 339 s

Time = 13

velocityDampingConstraint velocityDamping damped 0 (0%) of cells, with max limit 300
[INFO] MatrixAssemblyU: 3187.014 [ms]
smoothSolver:  Solving for Ux, Initial residual = 0.0145027505853844, Final residual = 0.001440179733798587, No Iterations 12
smoothSolver:  Solving for Uy, Initial residual = 0.04335987748666527, Final residual = 0.004226211448299059, No Iterations 12
smoothSolver:  Solving for Uz, Initial residual = 0.04293806482063216, Final residual = 0.004108974055769769, No Iterations 12
[INFO] MomentumPredictor: 2512.9 [ms]
[INFO] MatrixAssemblyPI: 456.791 [ms]
[INFO] MatrixAssemblyPII: 228.095 [ms]
DICPCG:  Solving for p, Initial residual = 0.04892127389050818, Final residual = 0.0004865504117651356, No Iterations 221
[INFO] SolveP: 16292.051 [ms]
time step continuity errors : sum local = 0.00383719340670256, global = -0.0002733646501406083, cumulative = 0.0008250189081329196
[INFO] postSolveP: 124.374 [ms]
smoothSolver:  Solving for nuTilda, Initial residual = 0.03469787849498242, Final residual = 0.002828385105326406, No Iterations 3
[INFO] TimeStep: 24733.901 [ms]
ExecutionTime = 364.43 s  ClockTime = 366 s

Time = 14

velocityDampingConstraint velocityDamping damped 0 (0%) of cells, with max limit 300
[INFO] MatrixAssemblyU: 3182.871 [ms]
smoothSolver:  Solving for Ux, Initial residual = 0.01379558856104363, Final residual = 0.001377003898366166, No Iterations 12
smoothSolver:  Solving for Uy, Initial residual = 0.04181907612742824, Final residual = 0.004078882038661026, No Iterations 12
smoothSolver:  Solving for Uz, Initial residual = 0.04223141123800252, Final residual = 0.004053223925709309, No Iterations 12
[INFO] MomentumPredictor: 2513.223 [ms]
[INFO] MatrixAssemblyPI: 460.438 [ms]
[INFO] MatrixAssemblyPII: 228.052 [ms]
DICPCG:  Solving for p, Initial residual = 0.04824057478725527, Final residual = 0.0004815648092741788, No Iterations 93
[INFO] SolveP: 6890.65 [ms]
time step continuity errors : sum local = 0.003680869004018017, global = 0.0003411917381111072, cumulative = 0.001166210646244027
[INFO] postSolveP: 124.438 [ms]
smoothSolver:  Solving for nuTilda, Initial residual = 0.05813089876576966, Final residual = 0.00480044132046, No Iterations 2
[INFO] TimeStep: 15272.532 [ms]
ExecutionTime = 382.23 s  ClockTime = 384 s

Time = 15

velocityDampingConstraint velocityDamping damped 0 (0%) of cells, with max limit 300
[INFO] MatrixAssemblyU: 3179.93 [ms]
smoothSolver:  Solving for Ux, Initial residual = 0.01289653949943934, Final residual = 0.001113572664653755, No Iterations 13
smoothSolver:  Solving for Uy, Initial residual = 0.04000374682138205, Final residual = 0.003931244317825103, No Iterations 12
smoothSolver:  Solving for Uz, Initial residual = 0.04155995844834257, Final residual = 0.004015485044433677, No Iterations 12
[INFO] MomentumPredictor: 2574.978 [ms]
[INFO] MatrixAssemblyPI: 457.022 [ms]
[INFO] MatrixAssemblyPII: 228.427 [ms]
DICPCG:  Solving for p, Initial residual = 0.04688146216701726, Final residual = 0.0004644999242515979, No Iterations 118
[INFO] SolveP: 8700.416999999999 [ms]
time step continuity errors : sum local = 0.003544934228216575, global = 0.0008563656446723627, cumulative = 0.002022576290916389
[INFO] postSolveP: 124.821 [ms]
smoothSolver:  Solving for nuTilda, Initial residual = 0.03134607261624392, Final residual = 0.002661933547014798, No Iterations 3
[INFO] TimeStep: 17195.522 [ms]
ExecutionTime = 401.95 s  ClockTime = 404 s

Time = 16

velocityDampingConstraint velocityDamping damped 0 (0%) of cells, with max limit 300
[INFO] MatrixAssemblyU: 3178.318 [ms]
smoothSolver:  Solving for Ux, Initial residual = 0.01222015603994467, Final residual = 0.001056568757281397, No Iterations 13
smoothSolver:  Solving for Uy, Initial residual = 0.03916523381253943, Final residual = 0.003867616781584812, No Iterations 12
smoothSolver:  Solving for Uz, Initial residual = 0.04144482279272513, Final residual = 0.004012669823798209, No Iterations 12
[INFO] MomentumPredictor: 2564.394 [ms]
[INFO] MatrixAssemblyPI: 457.09 [ms]
[INFO] MatrixAssemblyPII: 227.761 [ms]
DICPCG:  Solving for p, Initial residual = 0.04538582194644589, Final residual = 0.0004455866382058563, No Iterations 221
[INFO] SolveP: 16234.069 [ms]
time step continuity errors : sum local = 0.00342403837930729, global = -4.192441470863709e-05, cumulative = 0.001980651876207752
[INFO] postSolveP: 124.745 [ms]
smoothSolver:  Solving for nuTilda, Initial residual = 0.05169526820977283, Final residual = 0.00455118242588583, No Iterations 2
[INFO] TimeStep: 24654.836 [ms]
ExecutionTime = 429.08 s  ClockTime = 431 s

Time = 17

velocityDampingConstraint velocityDamping damped 0 (0%) of cells, with max limit 300
[INFO] MatrixAssemblyU: 3176.862 [ms]
smoothSolver:  Solving for Ux, Initial residual = 0.01158145805798053, Final residual = 0.0010057635101248, No Iterations 13
smoothSolver:  Solving for Uy, Initial residual = 0.03901912525573167, Final residual = 0.003870271441664748, No Iterations 12
smoothSolver:  Solving for Uz, Initial residual = 0.04178242957493124, Final residual = 0.004058802642887585, No Iterations 12
[INFO] MomentumPredictor: 2568.181 [ms]
[INFO] MatrixAssemblyPI: 456.067 [ms]
[INFO] MatrixAssemblyPII: 227.975 [ms]
DICPCG:  Solving for p, Initial residual = 0.04265828112619798, Final residual = 0.0004189711402371564, No Iterations 100
[INFO] SolveP: 7373.039 [ms]
time step continuity errors : sum local = 0.003408694259804843, global = -0.0004936002455292425, cumulative = 0.00148705163067851
[INFO] postSolveP: 125.97 [ms]
smoothSolver:  Solving for nuTilda, Initial residual = 0.02887804675712429, Final residual = 0.002512446811047606, No Iterations 3
[INFO] TimeStep: 15853.196 [ms]
ExecutionTime = 447.46 s  ClockTime = 449 s

Time = 18

velocityDampingConstraint velocityDamping damped 0 (0%) of cells, with max limit 300
[INFO] MatrixAssemblyU: 3177.735 [ms]
smoothSolver:  Solving for Ux, Initial residual = 0.01119353140183531, Final residual = 0.0009645326830678435, No Iterations 13
smoothSolver:  Solving for Uy, Initial residual = 0.03864491141660686, Final residual = 0.003294062467189293, No Iterations 13
smoothSolver:  Solving for Uz, Initial residual = 0.04178402221228644, Final residual = 0.004053423253005384, No Iterations 12
[INFO] MomentumPredictor: 2628.814 [ms]
[INFO] MatrixAssemblyPI: 454.9 [ms]
[INFO] MatrixAssemblyPII: 229.664 [ms]
DICPCG:  Solving for p, Initial residual = 0.04286744418077659, Final residual = 0.000424443227715693, No Iterations 114
[INFO] SolveP: 8437.174999999999 [ms]
time step continuity errors : sum local = 0.00344977015471464, global = -0.0006880324194508098, cumulative = 0.0007990192112276997
[INFO] postSolveP: 124.338 [ms]
smoothSolver:  Solving for nuTilda, Initial residual = 0.0463630585221317, Final residual = 0.004300253288861831, No Iterations 2
[INFO] TimeStep: 16920.489 [ms]
ExecutionTime = 466.88 s  ClockTime = 469 s

Time = 19

velocityDampingConstraint velocityDamping damped 0 (0%) of cells, with max limit 300
[INFO] MatrixAssemblyU: 3175.954 [ms]
smoothSolver:  Solving for Ux, Initial residual = 0.01086154807244715, Final residual = 0.0009347764470120406, No Iterations 13
smoothSolver:  Solving for Uy, Initial residual = 0.03893231225246096, Final residual = 0.003886625999103572, No Iterations 12
smoothSolver:  Solving for Uz, Initial residual = 0.04253831489921504, Final residual = 0.004091103329384289, No Iterations 12
[INFO] MomentumPredictor: 2565.915 [ms]
[INFO] MatrixAssemblyPI: 455.58 [ms]
[INFO] MatrixAssemblyPII: 228.065 [ms]
DICPCG:  Solving for p, Initial residual = 0.04337489140889662, Final residual = 0.0004314799673920926, No Iterations 134
[INFO] SolveP: 9887.379999999999 [ms]
time step continuity errors : sum local = 0.003504405808955269, global = -0.0006919870434910622, cumulative = 0.0001070321677366375
[INFO] postSolveP: 125.229 [ms]
smoothSolver:  Solving for nuTilda, Initial residual = 0.02694625444026076, Final residual = 0.002363331937102201, No Iterations 3
[INFO] TimeStep: 18362.56 [ms]
ExecutionTime = 487.76 s  ClockTime = 490 s

Time = 20

velocityDampingConstraint velocityDamping damped 0 (0%) of cells, with max limit 300
[INFO] MatrixAssemblyU: 3175.473 [ms]
smoothSolver:  Solving for Ux, Initial residual = 0.01070439941218137, Final residual = 0.0009155118540256343, No Iterations 13
smoothSolver:  Solving for Uy, Initial residual = 0.0394219292891177, Final residual = 0.003929444217853506, No Iterations 12
smoothSolver:  Solving for Uz, Initial residual = 0.04310982800646893, Final residual = 0.004118936483403618, No Iterations 12
[INFO] MomentumPredictor: 2604.597 [ms]
[INFO] MatrixAssemblyPI: 455.343 [ms]
[INFO] MatrixAssemblyPII: 227.692 [ms]
DICPCG:  Solving for p, Initial residual = 0.04358677079070321, Final residual = 0.0004341998888702502, No Iterations 126
[INFO] SolveP: 9311.300999999999 [ms]
time step continuity errors : sum local = 0.003537487874378421, global = -0.0006312075535958966, cumulative = -0.0005241753858592591
[INFO] postSolveP: 125.89 [ms]
smoothSolver:  Solving for nuTilda, Initial residual = 0.04182291233401605, Final residual = 0.004046789303362063, No Iterations 2
[INFO] TimeStep: 17768.099 [ms]
ExecutionTime = 508.02 s  ClockTime = 510 s

Time = 21

velocityDampingConstraint velocityDamping damped 0 (0%) of cells, with max limit 300
[INFO] MatrixAssemblyU: 3173.535 [ms]
smoothSolver:  Solving for Ux, Initial residual = 0.0105190235364501, Final residual = 0.0009023031228563907, No Iterations 13
smoothSolver:  Solving for Uy, Initial residual = 0.04000818997157199, Final residual = 0.003970137171478433, No Iterations 12
smoothSolver:  Solving for Uz, Initial residual = 0.0434613344955458, Final residual = 0.004121718204318859, No Iterations 12
[INFO] MomentumPredictor: 2571.95 [ms]
[INFO] MatrixAssemblyPI: 455.061 [ms]
[INFO] MatrixAssemblyPII: 227.934 [ms]
DICPCG:  Solving for p, Initial residual = 0.04399847831098978, Final residual = 0.0004376460411400009, No Iterations 120
[INFO] SolveP: 8866.767 [ms]
time step continuity errors : sum local = 0.00357930251807483, global = -0.0003774689375330667, cumulative = -0.0009016443233923259
[INFO] postSolveP: 125.131 [ms]
smoothSolver:  Solving for nuTilda, Initial residual = 0.025157105465041, Final residual = 0.00221847864556192, No Iterations 3
[INFO] TimeStep: 17345.886 [ms]
ExecutionTime = 527.89 s  ClockTime = 530 s

Time = 22

velocityDampingConstraint velocityDamping damped 0 (0%) of cells, with max limit 300
[INFO] MatrixAssemblyU: 3174.949 [ms]
smoothSolver:  Solving for Ux, Initial residual = 0.01050194745361259, Final residual = 0.001046512487377774, No Iterations 12
smoothSolver:  Solving for Uy, Initial residual = 0.04063027141927488, Final residual = 0.003988649076508792, No Iterations 12
smoothSolver:  Solving for Uz, Initial residual = 0.04342518567011038, Final residual = 0.004085318751305311, No Iterations 12
[INFO] MomentumPredictor: 2518.453 [ms]
[INFO] MatrixAssemblyPI: 459.345 [ms]
[INFO] MatrixAssemblyPII: 230.107 [ms]
DICPCG:  Solving for p, Initial residual = 0.04413445423163529, Final residual = 0.0004358707441124551, No Iterations 118
[INFO] SolveP: 8835.677 [ms]
time step continuity errors : sum local = 0.003588542443038562, global = -1.986023582507652e-05, cumulative = -0.0009215045592174024
[INFO] postSolveP: 125.697 [ms]
smoothSolver:  Solving for nuTilda, Initial residual = 0.03796669154097592, Final residual = 0.002018261424453008, No Iterations 3
[INFO] TimeStep: 17293.517 [ms]
ExecutionTime = 547.67 s  ClockTime = 550 s

Time = 23

velocityDampingConstraint velocityDamping damped 0 (0%) of cells, with max limit 300
[INFO] MatrixAssemblyU: 3184.258 [ms]
smoothSolver:  Solving for Ux, Initial residual = 0.01041216871063921, Final residual = 0.001039342860346707, No Iterations 12
smoothSolver:  Solving for Uy, Initial residual = 0.04115261431152484, Final residual = 0.003979792103739454, No Iterations 12
smoothSolver:  Solving for Uz, Initial residual = 0.04298573112506724, Final residual = 0.003997942610860449, No Iterations 12
[INFO] MomentumPredictor: 2522.954 [ms]
[INFO] MatrixAssemblyPI: 457.176 [ms]
[INFO] MatrixAssemblyPII: 230.951 [ms]
DICPCG:  Solving for p, Initial residual = 0.04399067815872858, Final residual = 0.0004303367212121543, No Iterations 120
[INFO] SolveP: 9052.958000000001 [ms]
time step continuity errors : sum local = 0.003585124964893452, global = 0.0003825699506952396, cumulative = -0.0005389346085221628
[INFO] postSolveP: 126.307 [ms]
smoothSolver:  Solving for nuTilda, Initial residual = 0.02334572143114938, Final residual = 0.00208777757859836, No Iterations 3
[INFO] TimeStep: 17515.653 [ms]
ExecutionTime = 567.7 s  ClockTime = 570 s

Time = 24

velocityDampingConstraint velocityDamping damped 0 (0%) of cells, with max limit 300
[INFO] MatrixAssemblyU: 3186.891 [ms]
smoothSolver:  Solving for Ux, Initial residual = 0.01046130391688486, Final residual = 0.001036376376852806, No Iterations 12
smoothSolver:  Solving for Uy, Initial residual = 0.04182984202064722, Final residual = 0.00401265692491668, No Iterations 12
smoothSolver:  Solving for Uz, Initial residual = 0.04254308455245596, Final residual = 0.003918953860881529, No Iterations 12
[INFO] MomentumPredictor: 2549.019 [ms]
[INFO] MatrixAssemblyPI: 459.41 [ms]
[INFO] MatrixAssemblyPII: 232.223 [ms]
DICPCG:  Solving for p, Initial residual = 0.04359064389287635, Final residual = 0.0004313993360757042, No Iterations 128
[INFO] SolveP: 9426.33 [ms]
time step continuity errors : sum local = 0.003650258034506415, global = 0.0007303864881316012, cumulative = 0.0001914518796094384
[INFO] postSolveP: 126.758 [ms]
smoothSolver:  Solving for nuTilda, Initial residual = 0.03446819681825956, Final residual = 0.001909341940125297, No Iterations 3
[INFO] TimeStep: 17906.684 [ms]
ExecutionTime = 588.13 s  ClockTime = 591 s

Time = 25

velocityDampingConstraint velocityDamping damped 0 (0%) of cells, with max limit 300
[INFO] MatrixAssemblyU: 3170.918 [ms]
smoothSolver:  Solving for Ux, Initial residual = 0.01039678632691785, Final residual = 0.001038946957778318, No Iterations 12
smoothSolver:  Solving for Uy, Initial residual = 0.04270435063881308, Final residual = 0.004110206780557821, No Iterations 12
smoothSolver:  Solving for Uz, Initial residual = 0.04234024381747072, Final residual = 0.003892082723850687, No Iterations 12
[INFO] MomentumPredictor: 2508.269 [ms]
[INFO] MatrixAssemblyPI: 455.27 [ms]
[INFO] MatrixAssemblyPII: 229.092 [ms]
DICPCG:  Solving for p, Initial residual = 0.04288772926761927, Final residual = 0.0004284066391764396, No Iterations 228
[INFO] SolveP: 16753.344 [ms]
time step continuity errors : sum local = 0.003693847519296263, global = -1.398308683347755e-05, cumulative = 0.0001774687927759608
[INFO] postSolveP: 126.085 [ms]
smoothSolver:  Solving for nuTilda, Initial residual = 0.0215056260720412, Final residual = 0.00195647930502651, No Iterations 3
[INFO] TimeStep: 25173.845 [ms]
ExecutionTime = 615.78 s  ClockTime = 618 s

Time = 26

velocityDampingConstraint velocityDamping damped 0 (0%) of cells, with max limit 300
[INFO] MatrixAssemblyU: 3168.962 [ms]
smoothSolver:  Solving for Ux, Initial residual = 0.01051031828388459, Final residual = 0.001040330825512649, No Iterations 12
smoothSolver:  Solving for Uy, Initial residual = 0.04392082550648854, Final residual = 0.004261530955439328, No Iterations 12
smoothSolver:  Solving for Uz, Initial residual = 0.04253655609512374, Final residual = 0.003933783956453902, No Iterations 12
[INFO] MomentumPredictor: 2513.678 [ms]
[INFO] MatrixAssemblyPI: 454.573 [ms]
[INFO] MatrixAssemblyPII: 228.809 [ms]
DICPCG:  Solving for p, Initial residual = 0.04112379454976368, Final residual = 0.0004055354155762491, No Iterations 106
[INFO] SolveP: 7857.309 [ms]
time step continuity errors : sum local = 0.003663965679998335, global = -0.0001829768023366096, cumulative = -5.508009560648784e-06
[INFO] postSolveP: 124.274 [ms]
smoothSolver:  Solving for nuTilda, Initial residual = 0.0314963007801505, Final residual = 0.001803409957877854, No Iterations 3
[INFO] TimeStep: 16271.052 [ms]
ExecutionTime = 634.5599999999999 s  ClockTime = 637 s

Time = 27

velocityDampingConstraint velocityDamping damped 0 (0%) of cells, with max limit 300
[INFO] MatrixAssemblyU: 3167.954 [ms]
smoothSolver:  Solving for Ux, Initial residual = 0.01045072698101382, Final residual = 0.001038983741910617, No Iterations 12
smoothSolver:  Solving for Uy, Initial residual = 0.04477142570590067, Final residual = 0.004431109319517597, No Iterations 12
smoothSolver:  Solving for Uz, Initial residual = 0.04277127360145944, Final residual = 0.004022031682512456, No Iterations 12
[INFO] MomentumPredictor: 2512.643 [ms]
[INFO] MatrixAssemblyPI: 454.861 [ms]
[INFO] MatrixAssemblyPII: 228.182 [ms]
DICPCG:  Solving for p, Initial residual = 0.04177583027103543, Final residual = 0.0004155702082785029, No Iterations 105
[INFO] SolveP: 7750.176 [ms]
time step continuity errors : sum local = 0.003762327475920249, global = -0.0001670579783426858, cumulative = -0.0001725659879033345
[INFO] postSolveP: 124.608 [ms]
smoothSolver:  Solving for nuTilda, Initial residual = 0.01981966462214536, Final residual = 0.001830840937526739, No Iterations 3
[INFO] TimeStep: 16163.939 [ms]
ExecutionTime = 653.24 s  ClockTime = 656 s

Time = 28

velocityDampingConstraint velocityDamping damped 0 (0%) of cells, with max limit 300
[INFO] MatrixAssemblyU: 3167.428 [ms]
smoothSolver:  Solving for Ux, Initial residual = 0.01058490192349483, Final residual = 0.001041557098706826, No Iterations 12
smoothSolver:  Solving for Uy, Initial residual = 0.04607239009945436, Final residual = 0.003929999841724142, No Iterations 13
smoothSolver:  Solving for Uz, Initial residual = 0.04367395522160115, Final residual = 0.004129183245403509, No Iterations 12
[INFO] MomentumPredictor: 2574.448 [ms]
[INFO] MatrixAssemblyPI: 457.969 [ms]
[INFO] MatrixAssemblyPII: 228.287 [ms]
DICPCG:  Solving for p, Initial residual = 0.04286017613208011, Final residual = 0.0004205497868310632, No Iterations 114
[INFO] SolveP: 8442.933000000001 [ms]
time step continuity errors : sum local = 0.003838046505499815, global = -0.0001250752377504859, cumulative = -0.0002976412256538204
[INFO] postSolveP: 125.698 [ms]
smoothSolver:  Solving for nuTilda, Initial residual = 0.02896095678980037, Final residual = 0.001696420513550104, No Iterations 3
[INFO] TimeStep: 16922.605 [ms]
ExecutionTime = 672.67 s  ClockTime = 675 s

Time = 29

velocityDampingConstraint velocityDamping damped 0 (0%) of cells, with max limit 300
[INFO] MatrixAssemblyU: 3165.723 [ms]
smoothSolver:  Solving for Ux, Initial residual = 0.01062332791462179, Final residual = 0.001043328036230667, No Iterations 12
smoothSolver:  Solving for Uy, Initial residual = 0.04768079456090332, Final residual = 0.004068701078199566, No Iterations 13
smoothSolver:  Solving for Uz, Initial residual = 0.04507265480342078, Final residual = 0.004268082558924901, No Iterations 12
[INFO] MomentumPredictor: 2569.683 [ms]
[INFO] MatrixAssemblyPI: 456.049 [ms]
[INFO] MatrixAssemblyPII: 228.603 [ms]
DICPCG:  Solving for p, Initial residual = 0.0438456256166885, Final residual = 0.0004328984610316073, No Iterations 97
[INFO] SolveP: 7184.162 [ms]
time step continuity errors : sum local = 0.003995320342871404, global = -5.522756830360406e-05, cumulative = -0.0003528687939574245
[INFO] postSolveP: 123.831 [ms]
smoothSolver:  Solving for nuTilda, Initial residual = 0.01833856339933756, Final residual = 0.001707490961575247, No Iterations 3
[INFO] TimeStep: 15651.556 [ms]
ExecutionTime = 690.83 s  ClockTime = 694 s

Time = 30

velocityDampingConstraint velocityDamping damped 0 (0%) of cells, with max limit 300
[INFO] MatrixAssemblyU: 3164.127 [ms]
smoothSolver:  Solving for Ux, Initial residual = 0.01080751175761551, Final residual = 0.001047588420898706, No Iterations 12
smoothSolver:  Solving for Uy, Initial residual = 0.04971532125208745, Final residual = 0.00494778395576723, No Iterations 12
smoothSolver:  Solving for Uz, Initial residual = 0.04666347988732557, Final residual = 0.004396286968787179, No Iterations 12
[INFO] MomentumPredictor: 2505.73 [ms]
[INFO] MatrixAssemblyPI: 455.966 [ms]
[INFO] MatrixAssemblyPII: 228.16 [ms]
DICPCG:  Solving for p, Initial residual = 0.04482612566303883, Final residual = 0.0004425691519585696, No Iterations 97
[INFO] SolveP: 7192.666 [ms]
time step continuity errors : sum local = 0.004127402500458633, global = 2.057556780243587e-06, cumulative = -0.0003508112371771809
[INFO] postSolveP: 124.581 [ms]
smoothSolver:  Solving for nuTilda, Initial residual = 0.02677549135960249, Final residual = 0.001589535972991061, No Iterations 3
[INFO] TimeStep: 15592.441 [ms]
ExecutionTime = 708.9299999999999 s  ClockTime = 712 s

Time = 31

velocityDampingConstraint velocityDamping damped 0 (0%) of cells, with max limit 300
[INFO] MatrixAssemblyU: 3166.165 [ms]
smoothSolver:  Solving for Ux, Initial residual = 0.01086374613755694, Final residual = 0.001052373818031965, No Iterations 12
smoothSolver:  Solving for Uy, Initial residual = 0.05219180462672859, Final residual = 0.005181501617098933, No Iterations 12
smoothSolver:  Solving for Uz, Initial residual = 0.04828167123219773, Final residual = 0.004537261084924964, No Iterations 12
[INFO] MomentumPredictor: 2513.773 [ms]
[INFO] MatrixAssemblyPI: 455.404 [ms]
[INFO] MatrixAssemblyPII: 228.139 [ms]
DICPCG:  Solving for p, Initial residual = 0.04613194495311011, Final residual = 0.0004525475565476041, No Iterations 93
[INFO] SolveP: 6874.455 [ms]
time step continuity errors : sum local = 0.004265661771705656, global = 0.0001052482109463409, cumulative = -0.00024556302623084
[INFO] postSolveP: 124.864 [ms]
smoothSolver:  Solving for nuTilda, Initial residual = 0.01707687090933674, Final residual = 0.001589374162959113, No Iterations 3
[INFO] TimeStep: 15287.999 [ms]
ExecutionTime = 726.73 s  ClockTime = 730 s

Time = 32

velocityDampingConstraint velocityDamping damped 0 (0%) of cells, with max limit 300
[INFO] MatrixAssemblyU: 3157.652 [ms]
smoothSolver:  Solving for Ux, Initial residual = 0.01098592035184642, Final residual = 0.001058479519031569, No Iterations 12
smoothSolver:  Solving for Uy, Initial residual = 0.05454729420195771, Final residual = 0.005400330858915423, No Iterations 12
smoothSolver:  Solving for Uz, Initial residual = 0.04983956957320314, Final residual = 0.004734253659622019, No Iterations 12
[INFO] MomentumPredictor: 2537.682 [ms]
[INFO] MatrixAssemblyPI: 456.101 [ms]
[INFO] MatrixAssemblyPII: 228.232 [ms]
DICPCG:  Solving for p, Initial residual = 0.04774332547416629, Final residual = 0.000473416120102517, No Iterations 93
[INFO] SolveP: 6872.134 [ms]
time step continuity errors : sum local = 0.004510145166970851, global = 0.0002002607876878565, cumulative = -4.530223854298348e-05
[INFO] postSolveP: 124.183 [ms]
smoothSolver:  Solving for nuTilda, Initial residual = 0.02487340859441662, Final residual = 0.001487579319514361, No Iterations 3
[INFO] TimeStep: 15305.371 [ms]
ExecutionTime = 744.55 s  ClockTime = 748 s

Time = 33

velocityDampingConstraint velocityDamping damped 0 (0%) of cells, with max limit 300
[INFO] MatrixAssemblyU: 3169.309 [ms]
smoothSolver:  Solving for Ux, Initial residual = 0.01094150679742976, Final residual = 0.001063935587714481, No Iterations 12
smoothSolver:  Solving for Uy, Initial residual = 0.05683643574088142, Final residual = 0.005614005900080609, No Iterations 12
smoothSolver:  Solving for Uz, Initial residual = 0.0519880187404332, Final residual = 0.005001575711574286, No Iterations 12
[INFO] MomentumPredictor: 2528.375 [ms]
[INFO] MatrixAssemblyPI: 462.484 [ms]
[INFO] MatrixAssemblyPII: 230.491 [ms]
DICPCG:  Solving for p, Initial residual = 0.04968853599223709, Final residual = 0.0004868521794935703, No Iterations 91
[INFO] SolveP: 6818.911 [ms]
time step continuity errors : sum local = 0.004681788599417107, global = 0.0002945577776457405, cumulative = 0.000249255539102757
[INFO] postSolveP: 130.078 [ms]
smoothSolver:  Solving for nuTilda, Initial residual = 0.01598910054807451, Final residual = 0.001480089900442988, No Iterations 3
[INFO] TimeStep: 15300.059 [ms]
ExecutionTime = 762.35 s  ClockTime = 766 s

Time = 34

velocityDampingConstraint velocityDamping damped 0 (0%) of cells, with max limit 300
[INFO] MatrixAssemblyU: 3195.719 [ms]
smoothSolver:  Solving for Ux, Initial residual = 0.01105923146645825, Final residual = 0.001073438069394536, No Iterations 12
smoothSolver:  Solving for Uy, Initial residual = 0.05929923329099651, Final residual = 0.005854964701907852, No Iterations 12
smoothSolver:  Solving for Uz, Initial residual = 0.05446048692709902, Final residual = 0.005289859490396526, No Iterations 12
[INFO] MomentumPredictor: 2566.067 [ms]
[INFO] MatrixAssemblyPI: 461.288 [ms]
[INFO] MatrixAssemblyPII: 230.735 [ms]
DICPCG:  Solving for p, Initial residual = 0.05193847535173856, Final residual = 0.0005056441304072882, No Iterations 91
[INFO] SolveP: 6798.523 [ms]
time step continuity errors : sum local = 0.004908738331183334, global = 0.0003668293641769939, cumulative = 0.0006160849032797509
[INFO] postSolveP: 124.768 [ms]
smoothSolver:  Solving for nuTilda, Initial residual = 0.02323048336036155, Final residual = 0.001393402959961236, No Iterations 3
[INFO] TimeStep: 15338.786 [ms]
ExecutionTime = 780.1900000000001 s  ClockTime = 784 s

Time = 35

velocityDampingConstraint velocityDamping damped 0 (0%) of cells, with max limit 300
[INFO] MatrixAssemblyU: 3178.667 [ms]
smoothSolver:  Solving for Ux, Initial residual = 0.01111713542863821, Final residual = 0.001086555006720744, No Iterations 12
smoothSolver:  Solving for Uy, Initial residual = 0.06182958399109698, Final residual = 0.006145508874737668, No Iterations 12
smoothSolver:  Solving for Uz, Initial residual = 0.05698144940987762, Final residual = 0.005554555351818941, No Iterations 12
[INFO] MomentumPredictor: 2529.407 [ms]
[INFO] MatrixAssemblyPI: 456.768 [ms]
[INFO] MatrixAssemblyPII: 228.175 [ms]
DICPCG:  Solving for p, Initial residual = 0.05381039224459078, Final residual = 0.0005216972438474551, No Iterations 91
[INFO] SolveP: 6738.059 [ms]
time step continuity errors : sum local = 0.005114463397581313, global = 0.0004114173680613075, cumulative = 0.001027502271341058
[INFO] postSolveP: 124.951 [ms]
smoothSolver:  Solving for nuTilda, Initial residual = 0.01502001750619369, Final residual = 0.00138237225494736, No Iterations 3
[INFO] TimeStep: 15173.647 [ms]
ExecutionTime = 797.9 s  ClockTime = 801 s

Time = 36

velocityDampingConstraint velocityDamping damped 0 (0%) of cells, with max limit 300
[INFO] MatrixAssemblyU: 3150.089 [ms]
smoothSolver:  Solving for Ux, Initial residual = 0.01138586576014476, Final residual = 0.001107433280237208, No Iterations 12
smoothSolver:  Solving for Uy, Initial residual = 0.06402966600694285, Final residual = 0.005505453238635755, No Iterations 13
smoothSolver:  Solving for Uz, Initial residual = 0.0595649387668756, Final residual = 0.005801767082782417, No Iterations 12
[INFO] MomentumPredictor: 2569.199 [ms]
[INFO] MatrixAssemblyPI: 454.93 [ms]
[INFO] MatrixAssemblyPII: 227.889 [ms]
DICPCG:  Solving for p, Initial residual = 0.0553388539770554, Final residual = 0.0005322584461810551, No Iterations 91
[INFO] SolveP: 6758.788 [ms]
time step continuity errors : sum local = 0.005259013205719846, global = 0.0004049878519193066, cumulative = 0.001432490123260365
[INFO] postSolveP: 124.472 [ms]
smoothSolver:  Solving for nuTilda, Initial residual = 0.0218177914347812, Final residual = 0.001307421595607302, No Iterations 3
[INFO] TimeStep: 15201.052 [ms]
ExecutionTime = 815.6 s  ClockTime = 819 s

Time = 37

velocityDampingConstraint velocityDamping damped 0 (0%) of cells, with max limit 300
[INFO] MatrixAssemblyU: 3145.753 [ms]
smoothSolver:  Solving for Ux, Initial residual = 0.01160588049899013, Final residual = 0.001133884624735608, No Iterations 12
smoothSolver:  Solving for Uy, Initial residual = 0.06577011174619778, Final residual = 0.005732016278517852, No Iterations 13
smoothSolver:  Solving for Uz, Initial residual = 0.06224315370629392, Final residual = 0.006034485168745361, No Iterations 12
[INFO] MomentumPredictor: 2568.487 [ms]
[INFO] MatrixAssemblyPI: 455.888 [ms]
[INFO] MatrixAssemblyPII: 228.982 [ms]
DICPCG:  Solving for p, Initial residual = 0.05714931918794783, Final residual = 0.0005702596814664861, No Iterations 87
[INFO] SolveP: 6439.764 [ms]
time step continuity errors : sum local = 0.005677837580876916, global = 0.0003741763438179211, cumulative = 0.001806666467078286
[INFO] postSolveP: 124.807 [ms]
smoothSolver:  Solving for nuTilda, Initial residual = 0.01420538664041297, Final residual = 0.001295303507741169, No Iterations 3
[INFO] TimeStep: 14880.436 [ms]
ExecutionTime = 832.98 s  ClockTime = 837 s

Time = 38

velocityDampingConstraint velocityDamping damped 0 (0%) of cells, with max limit 300
[INFO] MatrixAssemblyU: 3146.944 [ms]
smoothSolver:  Solving for Ux, Initial residual = 0.01193034165559091, Final residual = 0.001157602651745135, No Iterations 12
smoothSolver:  Solving for Uy, Initial residual = 0.06731789216362934, Final residual = 0.005913630950059529, No Iterations 13
smoothSolver:  Solving for Uz, Initial residual = 0.06513078366282325, Final residual = 0.006242209113383944, No Iterations 12
[INFO] MomentumPredictor: 2567.056 [ms]
[INFO] MatrixAssemblyPI: 456.126 [ms]
[INFO] MatrixAssemblyPII: 227.563 [ms]
DICPCG:  Solving for p, Initial residual = 0.05790111803591064, Final residual = 0.0005727807811727894, No Iterations 88
[INFO] SolveP: 6528.495 [ms]
time step continuity errors : sum local = 0.005735598812254837, global = 0.0003007102776740771, cumulative = 0.002107376744752363
[INFO] postSolveP: 124.557 [ms]
smoothSolver:  Solving for nuTilda, Initial residual = 0.02058848302169966, Final residual = 0.00123157378485176, No Iterations 3
[INFO] TimeStep: 14968.252 [ms]
ExecutionTime = 850.46 s  ClockTime = 854 s

Time = 39

velocityDampingConstraint velocityDamping damped 0 (0%) of cells, with max limit 300
[INFO] MatrixAssemblyU: 3141.557 [ms]
smoothSolver:  Solving for Ux, Initial residual = 0.01202943616794946, Final residual = 0.001170503173416966, No Iterations 12
smoothSolver:  Solving for Uy, Initial residual = 0.06884871054385361, Final residual = 0.006081425454396261, No Iterations 13
smoothSolver:  Solving for Uz, Initial residual = 0.06774800904818573, Final residual = 0.006472693273336702, No Iterations 12
[INFO] MomentumPredictor: 2570.077 [ms]
[INFO] MatrixAssemblyPI: 457.858 [ms]
[INFO] MatrixAssemblyPII: 228.313 [ms]
DICPCG:  Solving for p, Initial residual = 0.05801267050751964, Final residual = 0.0005734823018392512, No Iterations 87
[INFO] SolveP: 6422.228 [ms]
time step continuity errors : sum local = 0.005768617954160699, global = 0.0001930931319165594, cumulative = 0.002300469876668923
[INFO] postSolveP: 124.647 [ms]
smoothSolver:  Solving for nuTilda, Initial residual = 0.01354351202831322, Final residual = 0.001221014275090042, No Iterations 3
[INFO] TimeStep: 14858.71 [ms]
ExecutionTime = 867.8099999999999 s  ClockTime = 872 s

Time = 40

velocityDampingConstraint velocityDamping damped 0 (0%) of cells, with max limit 300
[INFO] MatrixAssemblyU: 3141.728 [ms]
smoothSolver:  Solving for Ux, Initial residual = 0.01216960077895495, Final residual = 0.001181141124428785, No Iterations 12
smoothSolver:  Solving for Uy, Initial residual = 0.07005238031041586, Final residual = 0.006240249845427448, No Iterations 13
smoothSolver:  Solving for Uz, Initial residual = 0.06961145280729247, Final residual = 0.006718494659132389, No Iterations 12
[INFO] MomentumPredictor: 2566.254 [ms]
[INFO] MatrixAssemblyPI: 455.502 [ms]
[INFO] MatrixAssemblyPII: 227.349 [ms]
DICPCG:  Solving for p, Initial residual = 0.05812986586661065, Final residual = 0.0005722036912770444, No Iterations 85
[INFO] SolveP: 6302.913 [ms]
time step continuity errors : sum local = 0.005769291705513524, global = 6.314389366975556e-05, cumulative = 0.002363613770338678
[INFO] postSolveP: 124.679 [ms]
smoothSolver:  Solving for nuTilda, Initial residual = 0.01948128816807167, Final residual = 0.001167735657225457, No Iterations 3
[INFO] TimeStep: 14734.154 [ms]
ExecutionTime = 885.04 s  ClockTime = 889 s

Time = 41

velocityDampingConstraint velocityDamping damped 0 (0%) of cells, with max limit 300
[INFO] MatrixAssemblyU: 3142.162 [ms]
smoothSolver:  Solving for Ux, Initial residual = 0.0120992839720157, Final residual = 0.001191171137833321, No Iterations 12
smoothSolver:  Solving for Uy, Initial residual = 0.0706534397529356, Final residual = 0.006399921046920378, No Iterations 13
smoothSolver:  Solving for Uz, Initial residual = 0.07077711992972135, Final residual = 0.00693107233346636, No Iterations 12
[INFO] MomentumPredictor: 2566.361 [ms]
[INFO] MatrixAssemblyPI: 454.577 [ms]
[INFO] MatrixAssemblyPII: 228.733 [ms]
DICPCG:  Solving for p, Initial residual = 0.05760707910013003, Final residual = 0.0005691981295934446, No Iterations 80
[INFO] SolveP: 5927.942 [ms]
time step continuity errors : sum local = 0.005743968229352884, global = -6.920626784668773e-05, cumulative = 0.002294407502491991
[INFO] postSolveP: 124.695 [ms]
smoothSolver:  Solving for nuTilda, Initial residual = 0.01295136951734547, Final residual = 0.001159266292896446, No Iterations 3
[INFO] TimeStep: 14358.925 [ms]
ExecutionTime = 901.9 s  ClockTime = 906 s

Time = 42

velocityDampingConstraint velocityDamping damped 0 (0%) of cells, with max limit 300
[INFO] MatrixAssemblyU: 3148.837 [ms]
smoothSolver:  Solving for Ux, Initial residual = 0.01213403182568327, Final residual = 0.001198106856725392, No Iterations 12
smoothSolver:  Solving for Uy, Initial residual = 0.0711474591891106, Final residual = 0.006585682912375802, No Iterations 13
smoothSolver:  Solving for Uz, Initial residual = 0.07133399650419893, Final residual = 0.007113322341364242, No Iterations 12
[INFO] MomentumPredictor: 2565.927 [ms]
[INFO] MatrixAssemblyPI: 455.484 [ms]
[INFO] MatrixAssemblyPII: 228.811 [ms]
DICPCG:  Solving for p, Initial residual = 0.05705508860807366, Final residual = 0.0005634240023254681, No Iterations 81
[INFO] SolveP: 6029.068 [ms]
time step continuity errors : sum local = 0.005680037152362717, global = -0.0002333282403687392, cumulative = 0.002061079262123251
[INFO] postSolveP: 124.059 [ms]
smoothSolver:  Solving for nuTilda, Initial residual = 0.01847495300552558, Final residual = 0.001112791726518232, No Iterations 3
[INFO] TimeStep: 14471.012 [ms]
ExecutionTime = 918.88 s  ClockTime = 923 s

Time = 43

velocityDampingConstraint velocityDamping damped 0 (0%) of cells, with max limit 300
[INFO] MatrixAssemblyU: 3160.473 [ms]
smoothSolver:  Solving for Ux, Initial residual = 0.01202730222938801, Final residual = 0.001024883383634166, No Iterations 13
smoothSolver:  Solving for Uy, Initial residual = 0.07188126677020794, Final residual = 0.006806078574867878, No Iterations 13
smoothSolver:  Solving for Uz, Initial residual = 0.07116582749576245, Final residual = 0.006167479743719154, No Iterations 13
[INFO] MomentumPredictor: 2684.876 [ms]
[INFO] MatrixAssemblyPI: 457.894 [ms]
[INFO] MatrixAssemblyPII: 227.747 [ms]
DICPCG:  Solving for p, Initial residual = 0.05631480636086884, Final residual = 0.0005557419004660985, No Iterations 82
[INFO] SolveP: 6075.968 [ms]
time step continuity errors : sum local = 0.005584355340541363, global = -0.0004342579582654573, cumulative = 0.001626821303857794
[INFO] postSolveP: 125.08 [ms]
smoothSolver:  Solving for nuTilda, Initial residual = 0.01236383883312555, Final residual = 0.001103166547244376, No Iterations 3
[INFO] TimeStep: 14648.915 [ms]
ExecutionTime = 936.03 s  ClockTime = 940 s

Time = 44

velocityDampingConstraint velocityDamping damped 0 (0%) of cells, with max limit 300
[INFO] MatrixAssemblyU: 3153.338 [ms]
smoothSolver:  Solving for Ux, Initial residual = 0.01202815948259628, Final residual = 0.001033067485630553, No Iterations 13
smoothSolver:  Solving for Uy, Initial residual = 0.07237228979851386, Final residual = 0.007022230891972381, No Iterations 13
smoothSolver:  Solving for Uz, Initial residual = 0.07037840878669512, Final residual = 0.006228687822293427, No Iterations 13
[INFO] MomentumPredictor: 2681.239 [ms]
[INFO] MatrixAssemblyPI: 456.069 [ms]
[INFO] MatrixAssemblyPII: 228.042 [ms]
DICPCG:  Solving for p, Initial residual = 0.05567129693040983, Final residual = 0.0005472704238487174, No Iterations 85
[INFO] SolveP: 6291.54 [ms]
time step continuity errors : sum local = 0.005460584222697888, global = -0.0006717370203412469, cumulative = 0.0009550842835165472
[INFO] postSolveP: 124.44 [ms]
smoothSolver:  Solving for nuTilda, Initial residual = 0.01753203223506266, Final residual = 0.001060522496393634, No Iterations 3
[INFO] TimeStep: 14853.054 [ms]
ExecutionTime = 953.39 s  ClockTime = 957 s

Time = 45

velocityDampingConstraint velocityDamping damped 0 (0%) of cells, with max limit 300
[INFO] MatrixAssemblyU: 3152.417 [ms]
smoothSolver:  Solving for Ux, Initial residual = 0.01188260256821142, Final residual = 0.001042194980301202, No Iterations 13
smoothSolver:  Solving for Uy, Initial residual = 0.07246132015410062, Final residual = 0.007158650858907487, No Iterations 13
smoothSolver:  Solving for Uz, Initial residual = 0.06935109916675636, Final residual = 0.006278394968469414, No Iterations 13
[INFO] MomentumPredictor: 2682.705 [ms]
[INFO] MatrixAssemblyPI: 455.175 [ms]
[INFO] MatrixAssemblyPII: 228.696 [ms]
DICPCG:  Solving for p, Initial residual = 0.05512190699843812, Final residual = 0.0005360222907241265, No Iterations 89
[INFO] SolveP: 6611.701 [ms]
time step continuity errors : sum local = 0.005289319629541408, global = -0.0008876126569949797, cumulative = 6.747162652156753e-05
[INFO] postSolveP: 124.624 [ms]
smoothSolver:  Solving for nuTilda, Initial residual = 0.0118038538320522, Final residual = 0.001049522789378446, No Iterations 3
[INFO] TimeStep: 15170.401 [ms]
ExecutionTime = 971.0700000000001 s  ClockTime = 975 s

Time = 46

velocityDampingConstraint velocityDamping damped 0 (0%) of cells, with max limit 300
[INFO] MatrixAssemblyU: 3154.276 [ms]
smoothSolver:  Solving for Ux, Initial residual = 0.01175955163878481, Final residual = 0.001046977812405731, No Iterations 13
smoothSolver:  Solving for Uy, Initial residual = 0.07228893124762201, Final residual = 0.007218069017736902, No Iterations 13
smoothSolver:  Solving for Uz, Initial residual = 0.06808183465271944, Final residual = 0.006329386487734096, No Iterations 13
[INFO] MomentumPredictor: 2677.993 [ms]
[INFO] MatrixAssemblyPI: 455.982 [ms]
[INFO] MatrixAssemblyPII: 228.886 [ms]
DICPCG:  Solving for p, Initial residual = 0.05429435983260806, Final residual = 0.0005426244447083193, No Iterations 107
[INFO] SolveP: 7904.395 [ms]
time step continuity errors : sum local = 0.005303871245130762, global = -0.001015230240758445, cumulative = -0.0009477586142368775
[INFO] postSolveP: 125.692 [ms]
smoothSolver:  Solving for nuTilda, Initial residual = 0.01664869134541675, Final residual = 0.00101200731597165, No Iterations 3
[INFO] TimeStep: 16464.502 [ms]
ExecutionTime = 990.04 s  ClockTime = 994 s

Time = 47

velocityDampingConstraint velocityDamping damped 0 (0%) of cells, with max limit 300
[INFO] MatrixAssemblyU: 3150.362 [ms]
smoothSolver:  Solving for Ux, Initial residual = 0.01152052479874341, Final residual = 0.001051625538932797, No Iterations 13
smoothSolver:  Solving for Uy, Initial residual = 0.07210853436769948, Final residual = 0.006189630861656747, No Iterations 14
smoothSolver:  Solving for Uz, Initial residual = 0.06670181215409288, Final residual = 0.006368849784280924, No Iterations 13
[INFO] MomentumPredictor: 2744.588 [ms]
[INFO] MatrixAssemblyPI: 455.032 [ms]
[INFO] MatrixAssemblyPII: 229.083 [ms]
DICPCG:  Solving for p, Initial residual = 0.0537853582230146, Final residual = 0.0005359504295849683, No Iterations 91
[INFO] SolveP: 6731.071 [ms]
time step continuity errors : sum local = 0.005194674567347571, global = -0.001132849651049507, cumulative = -0.002080608265286384
[INFO] postSolveP: 124.398 [ms]
smoothSolver:  Solving for nuTilda, Initial residual = 0.0112843491192169, Final residual = 0.001002327728746648, No Iterations 3
[INFO] TimeStep: 15350.998 [ms]
ExecutionTime = 1007.89 s  ClockTime = 1012 s

Time = 48

velocityDampingConstraint velocityDamping damped 0 (0%) of cells, with max limit 300
[INFO] MatrixAssemblyU: 3149.655 [ms]
smoothSolver:  Solving for Ux, Initial residual = 0.01148763695697588, Final residual = 0.001057087272351775, No Iterations 13
smoothSolver:  Solving for Uy, Initial residual = 0.07143936794718767, Final residual = 0.006138812722159805, No Iterations 14
smoothSolver:  Solving for Uz, Initial residual = 0.06536458279048675, Final residual = 0.006353151522260122, No Iterations 13
[INFO] MomentumPredictor: 2739.608 [ms]
[INFO] MatrixAssemblyPI: 454.879 [ms]
[INFO] MatrixAssemblyPII: 228.69 [ms]
DICPCG:  Solving for p, Initial residual = 0.05308585621456506, Final residual = 0.0005296578881651132, No Iterations 219
[INFO] SolveP: 16113.223 [ms]
time step continuity errors : sum local = 0.005094770665573967, global = -0.000360710987713763, cumulative = -0.002441319253000147
[INFO] postSolveP: 126.095 [ms]
smoothSolver:  Solving for nuTilda, Initial residual = 0.01586906767114749, Final residual = 0.0009711631473708872, No Iterations 3
[INFO] TimeStep: 24728.121 [ms]
ExecutionTime = 1035.08 s  ClockTime = 1040 s

Time = 49

velocityDampingConstraint velocityDamping damped 0 (0%) of cells, with max limit 300
[INFO] MatrixAssemblyU: 3149.49 [ms]
smoothSolver:  Solving for Ux, Initial residual = 0.0116200562670216, Final residual = 0.001063748678678136, No Iterations 13
smoothSolver:  Solving for Uy, Initial residual = 0.07114938640138679, Final residual = 0.006107557520414464, No Iterations 14
smoothSolver:  Solving for Uz, Initial residual = 0.06491701880404764, Final residual = 0.00635712358073005, No Iterations 13
[INFO] MomentumPredictor: 2748.508 [ms]
[INFO] MatrixAssemblyPI: 456.485 [ms]
[INFO] MatrixAssemblyPII: 227.674 [ms]
DICPCG:  Solving for p, Initial residual = 0.05468108423637683, Final residual = 0.000538153795562216, No Iterations 86
[INFO] SolveP: 6350.75 [ms]
time step continuity errors : sum local = 0.004944384471524282, global = 0.0006484057749611434, cumulative = -0.001792913478039004
[INFO] postSolveP: 124.758 [ms]
smoothSolver:  Solving for nuTilda, Initial residual = 0.01085548969698802, Final residual = 0.0009651025288336056, No Iterations 3
[INFO] TimeStep: 14974.097 [ms]
ExecutionTime = 1052.56 s  ClockTime = 1057 s

Time = 50

velocityDampingConstraint velocityDamping damped 0 (0%) of cells, with max limit 300
[INFO] MatrixAssemblyU: 3143.282 [ms]
smoothSolver:  Solving for Ux, Initial residual = 0.01158214400663066, Final residual = 0.001064025497378295, No Iterations 13
smoothSolver:  Solving for Uy, Initial residual = 0.06956797092132384, Final residual = 0.006006076112061258, No Iterations 14
smoothSolver:  Solving for Uz, Initial residual = 0.06380719260088273, Final residual = 0.006316062290834968, No Iterations 13
[INFO] MomentumPredictor: 2746.09 [ms]
[INFO] MatrixAssemblyPI: 455.467 [ms]
[INFO] MatrixAssemblyPII: 227.843 [ms]
DICPCG:  Solving for p, Initial residual = 0.05406199777188224, Final residual = 0.0005349247472429638, No Iterations 215
[INFO] SolveP: 15815.276 [ms]
time step continuity errors : sum local = 0.004895916640394822, global = -5.470367116472231e-05, cumulative = -0.001847617149203726
[INFO] postSolveP: 124.191 [ms]
smoothSolver:  Solving for nuTilda, Initial residual = 0.0151891712944842, Final residual = 0.0009389544325612842, No Iterations 3
[INFO] TimeStep: 24425.533 [ms]
ExecutionTime = 1079.44 s  ClockTime = 1084 s

End

Finalising parallel run
