/*---------------------------------------------------------------------------*\
| =========                 |                                                 |
| \\      /  F ield         | OpenFOAM: The Open Source CFD Toolbox           |
|  \\    /   O peration     | Version:  2306                                  |
|   \\  /    A nd           | Website:  www.openfoam.com                      |
|    \\/     M anipulation  |                                                 |
\*---------------------------------------------------------------------------*/
Build  : a6e826bd55-20230630 OPENFOAM=2306 version=v2306
Arch   : "LSB;label=32;scalar=64"
Exec   : icoFoam -parallel -case /tmp/lidDrivenCavity/workspace/db5a50bf22b1ea6c959205277b4baa2d/case
Date   : Dec 21 2023
Time   : 08:48:07
Host   : nla-gpu2.ianm.kit.edu
PID    : 400278
I/O    : uncollated
Case   : /tmp/lidDrivenCavity/workspace/db5a50bf22b1ea6c959205277b4baa2d/case
nProcs : 8
Hosts  :
(
    (nla-gpu2.ianm.kit.edu 8)
)
Pstream initialized with:
    floatTransfer      : false
    nProcsSimpleSum    : 0
    nonBlockingExchange: 0 (tuning: 0)
    exchange algorithm : -1
    commsType          : nonBlocking
    polling iterations : 0
trapFpe: Floating point exception trapping enabled (FOAM_SIGFPE).
fileModificationChecking : Monitoring run-time modified files using timeStampMaster (fileModificationSkew 5, maxFileModificationPolls 20)
allowSystemOperations : Allowing user-supplied system call operations

// * * * * * * * * * * * * * * * * * * * * * * * * * * * * * * * * * * * * * //
Create time

--> FOAM Warning : 
    From void* Foam::dlLibraryTable::openLibrary(const Foam::fileName&, bool)
    in file db/dynamicLibrary/dlLibraryTable/dlLibraryTable.C at line 188
    Could not load "libpetscFoam.so"
libpetscFoam.so: cannot open shared object file: No such file or directory
Create mesh for time = 0


PISO: Operating solver in PISO mode

Reading transportProperties

Reading field p

Reading field U

Reading/calculating face flux field phi


Starting time loop

Time = 0.000125

Courant Number mean: 8.02505e-18 max: 4.85723e-14
[INFO] MatrixAssemblyU: 819.208 [ms]
DILUPBiCGStab:  Solving for Ux, Initial residual = 1, Final residual = 0.0211815, No Iterations 5
DILUPBiCGStab:  Solving for Uy:  solution singularity
DILUPBiCGStab:  Solving for Uz:  solution singularity
[INFO] MomentumPredictor: 3795.38 [ms]
[INFO] MatrixAssemblyPI: 824.568 [ms]
[INFO] AdjustPhi: 44.908 [ms]
[INFO] ConstrainPressure: 0.011 [ms]
[INFO] MatrixAssemblyPII: 231.194 [ms]
GAMG:  Solving for p, Initial residual = 1, Final residual = 9.83279e-05, No Iterations 37
[INFO] SolveP: 29263.4 [ms]
time step continuity errors : sum local = 2.50238e-09, global = -2.88522e-21, cumulative = -2.88522e-21
[INFO] ContinuityError: 113.191 [ms]
[INFO] CorrectBoundary: 2.492 [ms]
[INFO] PISOStep: 30739 [ms]
[INFO] MatrixAssemblyPI: 785.62 [ms]
[INFO] AdjustPhi: 45.281 [ms]
[INFO] ConstrainPressure: 0.004 [ms]
[INFO] MatrixAssemblyPII: 234.349 [ms]
GAMG:  Solving for p, Initial residual = 0.822368, Final residual = 7.7231e-05, No Iterations 39
[INFO] SolveP: 29024.2 [ms]
time step continuity errors : sum local = 2.36652e-09, global = -8.176e-23, cumulative = -2.96698e-21
[INFO] ContinuityError: 112.147 [ms]
[INFO] CorrectBoundary: 3.701 [ms]
[INFO] PISOStep: 30464.9 [ms]
[INFO] TimeStep: 65936.8 [ms]
ExecutionTime = 69.92 s  ClockTime = 70 s

Time = 0.00025

Courant Number mean: 0.0108823 max: 0.437684
[INFO] MatrixAssemblyU: 612.224 [ms]
DILUPBiCGStab:  Solving for Ux, Initial residual = 0.108157, Final residual = 0.0127635, No Iterations 5
DILUPBiCGStab:  Solving for Uy, Initial residual = 0.484287, Final residual = 0.0502287, No Iterations 5
DILUPBiCGStab:  Solving for Uz, Initial residual = 0.993711, Final residual = 0.120564, No Iterations 5
[INFO] MomentumPredictor: 7053.4 [ms]
[INFO] MatrixAssemblyPI: 803.987 [ms]
[INFO] AdjustPhi: 44.656 [ms]
[INFO] ConstrainPressure: 0.003 [ms]
[INFO] MatrixAssemblyPII: 229.166 [ms]
GAMG:  Solving for p, Initial residual = 0.905692, Final residual = 9.9618e-05, No Iterations 79
[INFO] SolveP: 58480.2 [ms]
time step continuity errors : sum local = 6.97727e-09, global = 4.40021e-22, cumulative = -2.52696e-21
[INFO] ContinuityError: 110.93 [ms]
[INFO] CorrectBoundary: 2.784 [ms]
[INFO] PISOStep: 59935.8 [ms]
[INFO] MatrixAssemblyPI: 786.633 [ms]
[INFO] AdjustPhi: 48.553 [ms]
[INFO] ConstrainPressure: 0.004 [ms]
[INFO] MatrixAssemblyPII: 231.488 [ms]
GAMG:  Solving for p, Initial residual = 0.856952, Final residual = 7.67463e-05, No Iterations 31
[INFO] SolveP: 23146 [ms]
time step continuity errors : sum local = 5.46691e-09, global = 1.30142e-22, cumulative = -2.39682e-21
[INFO] ContinuityError: 111.085 [ms]
[INFO] CorrectBoundary: 1.614 [ms]
[INFO] PISOStep: 24586.2 [ms]
[INFO] TimeStep: 92290.7 [ms]
ExecutionTime = 161.81 s  ClockTime = 163 s

Time = 0.000375

Courant Number mean: 0.0169899 max: 0.511337
[INFO] MatrixAssemblyU: 615.964 [ms]
DILUPBiCGStab:  Solving for Ux, Initial residual = 0.0537142, Final residual = 0.00524592, No Iterations 5
DILUPBiCGStab:  Solving for Uy, Initial residual = 0.261875, Final residual = 0.025639, No Iterations 5
DILUPBiCGStab:  Solving for Uz, Initial residual = 0.893471, Final residual = 0.113046, No Iterations 5
[INFO] MomentumPredictor: 7012.5 [ms]
[INFO] MatrixAssemblyPI: 802.839 [ms]
[INFO] AdjustPhi: 46.128 [ms]
[INFO] ConstrainPressure: 0.004 [ms]
[INFO] MatrixAssemblyPII: 230.657 [ms]
GAMG:  Solving for p, Initial residual = 0.940742, Final residual = 8.1455e-05, No Iterations 63
[INFO] SolveP: 46623 [ms]
time step continuity errors : sum local = 7.21593e-09, global = 2.04075e-22, cumulative = -2.19275e-21
[INFO] ContinuityError: 110.695 [ms]
[INFO] CorrectBoundary: 2.998 [ms]
[INFO] PISOStep: 48075.2 [ms]
[INFO] MatrixAssemblyPI: 787.575 [ms]
[INFO] AdjustPhi: 43.785 [ms]
[INFO] ConstrainPressure: 0.004 [ms]
[INFO] MatrixAssemblyPII: 230.385 [ms]
GAMG:  Solving for p, Initial residual = 0.909065, Final residual = 6.49912e-05, No Iterations 37
[INFO] SolveP: 27529.6 [ms]
time step continuity errors : sum local = 5.71326e-09, global = 4.65467e-22, cumulative = -1.72728e-21
[INFO] ContinuityError: 110.937 [ms]
[INFO] CorrectBoundary: 3.175 [ms]
[INFO] PISOStep: 28964.1 [ms]
[INFO] TimeStep: 84771.9 [ms]
ExecutionTime = 246.23 s  ClockTime = 247 s

Time = 0.0005

Courant Number mean: 0.0206079 max: 0.477711
[INFO] MatrixAssemblyU: 611.628 [ms]
DILUPBiCGStab:  Solving for Ux, Initial residual = 0.0416443, Final residual = 0.00487129, No Iterations 5
DILUPBiCGStab:  Solving for Uy, Initial residual = 0.213997, Final residual = 0.0232005, No Iterations 5
DILUPBiCGStab:  Solving for Uz, Initial residual = 0.844499, Final residual = 0.10159, No Iterations 5
[INFO] MomentumPredictor: 6990.84 [ms]
[INFO] MatrixAssemblyPI: 804.436 [ms]
[INFO] AdjustPhi: 47.141 [ms]
[INFO] ConstrainPressure: 0.003 [ms]
[INFO] MatrixAssemblyPII: 230.562 [ms]
GAMG:  Solving for p, Initial residual = 0.937151, Final residual = 5.62304e-05, No Iterations 46
[INFO] SolveP: 34167.6 [ms]
time step continuity errors : sum local = 6.05743e-09, global = 1.72642e-22, cumulative = -1.55464e-21
[INFO] ContinuityError: 110.156 [ms]
[INFO] CorrectBoundary: 2.475 [ms]
[INFO] PISOStep: 35623.9 [ms]
[INFO] MatrixAssemblyPI: 785.447 [ms]
[INFO] AdjustPhi: 53.351 [ms]
[INFO] ConstrainPressure: 0.003 [ms]
[INFO] MatrixAssemblyPII: 230.673 [ms]
GAMG:  Solving for p, Initial residual = 0.879989, Final residual = 7.64521e-05, No Iterations 33
[INFO] SolveP: 24569.2 [ms]
time step continuity errors : sum local = 8.39124e-09, global = 8.99107e-22, cumulative = -6.55531e-22
[INFO] ContinuityError: 110.93 [ms]
[INFO] CorrectBoundary: 1.797 [ms]
[INFO] PISOStep: 26009.3 [ms]
[INFO] TimeStep: 69339.1 [ms]
ExecutionTime = 315.26 s  ClockTime = 317 s

Time = 0.000625

Courant Number mean: 0.0236966 max: 0.55565
[INFO] MatrixAssemblyU: 613.088 [ms]
DILUPBiCGStab:  Solving for Ux, Initial residual = 0.0375424, Final residual = 0.00438765, No Iterations 5
DILUPBiCGStab:  Solving for Uy, Initial residual = 0.184833, Final residual = 0.0190417, No Iterations 5
DILUPBiCGStab:  Solving for Uz, Initial residual = 0.836174, Final residual = 0.103245, No Iterations 5
[INFO] MomentumPredictor: 7010.82 [ms]
[INFO] MatrixAssemblyPI: 804.437 [ms]
[INFO] AdjustPhi: 53.286 [ms]
[INFO] ConstrainPressure: 0.003 [ms]
[INFO] MatrixAssemblyPII: 229.819 [ms]
GAMG:  Solving for p, Initial residual = 0.953692, Final residual = 5.94031e-05, No Iterations 41
[INFO] SolveP: 30452.4 [ms]
time step continuity errors : sum local = 7.3874e-09, global = 4.8235e-22, cumulative = -1.73181e-22
[INFO] ContinuityError: 110.76 [ms]
[INFO] CorrectBoundary: 1.361 [ms]
[INFO] PISOStep: 31912.7 [ms]
[INFO] MatrixAssemblyPI: 785.866 [ms]
[INFO] AdjustPhi: 45.092 [ms]
[INFO] ConstrainPressure: 0.004 [ms]
[INFO] MatrixAssemblyPII: 230.199 [ms]
GAMG:  Solving for p, Initial residual = 0.915445, Final residual = 9.9253e-05, No Iterations 33
[INFO] SolveP: 24684 [ms]
time step continuity errors : sum local = 1.22222e-08, global = 7.87424e-22, cumulative = 6.14243e-22
[INFO] ContinuityError: 112.083 [ms]
[INFO] CorrectBoundary: 3.145 [ms]
[INFO] PISOStep: 26117.6 [ms]
[INFO] TimeStep: 65758.6 [ms]
ExecutionTime = 380.73 s  ClockTime = 382 s

Time = 0.00075

Courant Number mean: 0.0260456 max: 0.483442
[INFO] MatrixAssemblyU: 610.997 [ms]
DILUPBiCGStab:  Solving for Ux, Initial residual = 0.035365, Final residual = 0.0041149, No Iterations 5
DILUPBiCGStab:  Solving for Uy, Initial residual = 0.171324, Final residual = 0.0161033, No Iterations 5
DILUPBiCGStab:  Solving for Uz, Initial residual = 0.807176, Final residual = 0.101905, No Iterations 5
[INFO] MomentumPredictor: 6990.8 [ms]
[INFO] MatrixAssemblyPI: 803.187 [ms]
[INFO] AdjustPhi: 46.955 [ms]
[INFO] ConstrainPressure: 0.004 [ms]
[INFO] MatrixAssemblyPII: 231.645 [ms]
GAMG:  Solving for p, Initial residual = 0.950573, Final residual = 9.66458e-05, No Iterations 29
[INFO] SolveP: 21631.4 [ms]
time step continuity errors : sum local = 1.38273e-08, global = 8.87785e-22, cumulative = 1.50203e-21
[INFO] ContinuityError: 109.91 [ms]
[INFO] CorrectBoundary: 1.837 [ms]
[INFO] PISOStep: 23082.6 [ms]
[INFO] MatrixAssemblyPI: 788.906 [ms]
[INFO] AdjustPhi: 43.364 [ms]
[INFO] ConstrainPressure: 0.004 [ms]
[INFO] MatrixAssemblyPII: 230.49 [ms]
GAMG:  Solving for p, Initial residual = 0.891112, Final residual = 9.63725e-05, No Iterations 42
[INFO] SolveP: 31184.7 [ms]
time step continuity errors : sum local = 1.39971e-08, global = -2.97914e-22, cumulative = 1.20411e-21
[INFO] ContinuityError: 111.373 [ms]
[INFO] CorrectBoundary: 2.212 [ms]
[INFO] PISOStep: 32620.6 [ms]
[INFO] TimeStep: 63408.8 [ms]
ExecutionTime = 443.87 s  ClockTime = 446 s

Time = 0.000875

Courant Number mean: 0.0282677 max: 0.611702
[INFO] MatrixAssemblyU: 612.564 [ms]
DILUPBiCGStab:  Solving for Ux, Initial residual = 0.0350238, Final residual = 0.00388106, No Iterations 5
DILUPBiCGStab:  Solving for Uy, Initial residual = 0.176407, Final residual = 0.0153723, No Iterations 5
DILUPBiCGStab:  Solving for Uz, Initial residual = 0.82316, Final residual = 0.110226, No Iterations 5
[INFO] MomentumPredictor: 6988.02 [ms]
[INFO] MatrixAssemblyPI: 804.383 [ms]
[INFO] AdjustPhi: 43.139 [ms]
[INFO] ConstrainPressure: 0.004 [ms]
[INFO] MatrixAssemblyPII: 229.22 [ms]
GAMG:  Solving for p, Initial residual = 0.961601, Final residual = 9.83957e-05, No Iterations 50
[INFO] SolveP: 37078.3 [ms]
time step continuity errors : sum local = 1.59653e-08, global = 9.76332e-22, cumulative = 2.18044e-21
[INFO] ContinuityError: 110.114 [ms]
[INFO] CorrectBoundary: 3.496 [ms]
[INFO] PISOStep: 38528.9 [ms]
[INFO] MatrixAssemblyPI: 786.423 [ms]
[INFO] AdjustPhi: 58.582 [ms]
[INFO] ConstrainPressure: 0.004 [ms]
[INFO] MatrixAssemblyPII: 231.111 [ms]
GAMG:  Solving for p, Initial residual = 0.917927, Final residual = 8.56288e-05, No Iterations 38
[INFO] SolveP: 28256.5 [ms]
time step continuity errors : sum local = 1.3844e-08, global = 2.37905e-22, cumulative = 2.41835e-21
[INFO] ContinuityError: 110.824 [ms]
[INFO] CorrectBoundary: 2.266 [ms]
[INFO] PISOStep: 29702 [ms]
[INFO] TimeStep: 75935.7 [ms]
ExecutionTime = 519.49 s  ClockTime = 522 s

Time = 0.001

Courant Number mean: 0.0300351 max: 0.491146
[INFO] MatrixAssemblyU: 612.551 [ms]
DILUPBiCGStab:  Solving for Ux, Initial residual = 0.0362388, Final residual = 0.00375587, No Iterations 5
DILUPBiCGStab:  Solving for Uy, Initial residual = 0.170111, Final residual = 0.0132382, No Iterations 5
DILUPBiCGStab:  Solving for Uz, Initial residual = 0.809303, Final residual = 0.103804, No Iterations 5
[INFO] MomentumPredictor: 7048.58 [ms]
[INFO] MatrixAssemblyPI: 802.282 [ms]
[INFO] AdjustPhi: 46.002 [ms]
[INFO] ConstrainPressure: 0.003 [ms]
[INFO] MatrixAssemblyPII: 230.785 [ms]
GAMG:  Solving for p, Initial residual = 0.959501, Final residual = 9.70278e-05, No Iterations 42
[INFO] SolveP: 31171.9 [ms]
time step continuity errors : sum local = 1.81562e-08, global = 4.92961e-22, cumulative = 2.91131e-21
[INFO] ContinuityError: 110.297 [ms]
[INFO] CorrectBoundary: 1.94 [ms]
[INFO] PISOStep: 32621.4 [ms]
[INFO] MatrixAssemblyPI: 787.733 [ms]
[INFO] AdjustPhi: 45.531 [ms]
[INFO] ConstrainPressure: 0.003 [ms]
[INFO] MatrixAssemblyPII: 230.947 [ms]
GAMG:  Solving for p, Initial residual = 0.898254, Final residual = 9.5958e-05, No Iterations 44
[INFO] SolveP: 32807.3 [ms]
time step continuity errors : sum local = 1.81723e-08, global = 5.19133e-22, cumulative = 3.43044e-21
[INFO] ContinuityError: 110.247 [ms]
[INFO] CorrectBoundary: 2.904 [ms]
[INFO] PISOStep: 34245.6 [ms]
[INFO] TimeStep: 74631.8 [ms]
ExecutionTime = 593.8 s  ClockTime = 596 s

Time = 0.001125

Courant Number mean: 0.0318626 max: 0.695673
[INFO] MatrixAssemblyU: 612.638 [ms]
DILUPBiCGStab:  Solving for Ux, Initial residual = 0.0374519, Final residual = 0.00353605, No Iterations 5
DILUPBiCGStab:  Solving for Uy, Initial residual = 0.187322, Final residual = 0.0137541, No Iterations 5
DILUPBiCGStab:  Solving for Uz, Initial residual = 0.810695, Final residual = 0.101323, No Iterations 5
[INFO] MomentumPredictor: 6990.95 [ms]
[INFO] MatrixAssemblyPI: 804.03 [ms]
[INFO] AdjustPhi: 50.118 [ms]
[INFO] ConstrainPressure: 0.004 [ms]
[INFO] MatrixAssemblyPII: 230.217 [ms]
GAMG:  Solving for p, Initial residual = 0.967546, Final residual = 8.42853e-05, No Iterations 37
[INFO] SolveP: 27528.1 [ms]
time step continuity errors : sum local = 1.80762e-08, global = 1.0702e-21, cumulative = 4.50065e-21
[INFO] ContinuityError: 110.968 [ms]
[INFO] CorrectBoundary: 3.089 [ms]
[INFO] PISOStep: 28985.7 [ms]
[INFO] MatrixAssemblyPI: 787.24 [ms]
[INFO] AdjustPhi: 42.675 [ms]
[INFO] ConstrainPressure: 0.003 [ms]
[INFO] MatrixAssemblyPII: 229.87 [ms]
GAMG:  Solving for p, Initial residual = 0.919139, Final residual = 8.86227e-05, No Iterations 38
[INFO] SolveP: 28241.2 [ms]
time step continuity errors : sum local = 1.8986e-08, global = 6.38984e-22, cumulative = 5.13963e-21
[INFO] ContinuityError: 110.489 [ms]
[INFO] CorrectBoundary: 1.45 [ms]
[INFO] PISOStep: 29673.1 [ms]
[INFO] TimeStep: 66366.2 [ms]
ExecutionTime = 659.87 s  ClockTime = 663 s

Time = 0.00125

Courant Number mean: 0.0332919 max: 0.50708
[INFO] MatrixAssemblyU: 610.788 [ms]
DILUPBiCGStab:  Solving for Ux, Initial residual = 0.0409858, Final residual = 0.00362105, No Iterations 5
DILUPBiCGStab:  Solving for Uy, Initial residual = 0.186201, Final residual = 0.0121141, No Iterations 5
DILUPBiCGStab:  Solving for Uz, Initial residual = 0.800347, Final residual = 0.0936223, No Iterations 5
[INFO] MomentumPredictor: 6999.34 [ms]
[INFO] MatrixAssemblyPI: 803.814 [ms]
[INFO] AdjustPhi: 42.498 [ms]
[INFO] ConstrainPressure: 0.004 [ms]
[INFO] MatrixAssemblyPII: 230.213 [ms]
GAMG:  Solving for p, Initial residual = 0.966882, Final residual = 9.943e-05, No Iterations 46
[INFO] SolveP: 34079 [ms]
time step continuity errors : sum local = 2.48521e-08, global = 1.55244e-21, cumulative = 6.69207e-21
[INFO] ContinuityError: 109.964 [ms]
[INFO] CorrectBoundary: 1.981 [ms]
[INFO] PISOStep: 35525.8 [ms]
[INFO] MatrixAssemblyPI: 787.265 [ms]
[INFO] AdjustPhi: 48.012 [ms]
[INFO] ConstrainPressure: 0.003 [ms]
[INFO] MatrixAssemblyPII: 230.438 [ms]
GAMG:  Solving for p, Initial residual = 0.904033, Final residual = 7.82254e-05, No Iterations 44
[INFO] SolveP: 32608.1 [ms]
time step continuity errors : sum local = 1.98112e-08, global = 2.09742e-22, cumulative = 6.90181e-21
[INFO] ContinuityError: 110.604 [ms]
[INFO] CorrectBoundary: 2.402 [ms]
[INFO] PISOStep: 34045.7 [ms]
[INFO] TimeStep: 77285.4 [ms]
ExecutionTime = 736.82 s  ClockTime = 740 s

Time = 0.001375

Courant Number mean: 0.0349125 max: 0.827108
[INFO] MatrixAssemblyU: 612.716 [ms]
DILUPBiCGStab:  Solving for Ux, Initial residual = 0.0437229, Final residual = 0.00344858, No Iterations 5
DILUPBiCGStab:  Solving for Uy, Initial residual = 0.210388, Final residual = 0.013186, No Iterations 5
DILUPBiCGStab:  Solving for Uz, Initial residual = 0.80133, Final residual = 0.0905706, No Iterations 5
[INFO] MomentumPredictor: 6990.01 [ms]
[INFO] MatrixAssemblyPI: 803.723 [ms]
[INFO] AdjustPhi: 45.297 [ms]
[INFO] ConstrainPressure: 0.003 [ms]
[INFO] MatrixAssemblyPII: 229.951 [ms]
GAMG:  Solving for p, Initial residual = 0.972475, Final residual = 7.02031e-05, No Iterations 41
[INFO] SolveP: 30431.6 [ms]
time step continuity errors : sum local = 2.04145e-08, global = 7.78015e-22, cumulative = 7.67983e-21
[INFO] ContinuityError: 110.98 [ms]
[INFO] CorrectBoundary: 2.494 [ms]
[INFO] PISOStep: 31883.6 [ms]
[INFO] MatrixAssemblyPI: 785.966 [ms]
[INFO] AdjustPhi: 44.523 [ms]
[INFO] ConstrainPressure: 0.004 [ms]
[INFO] MatrixAssemblyPII: 229.984 [ms]
GAMG:  Solving for p, Initial residual = 0.920147, Final residual = 9.71984e-05, No Iterations 40
[INFO] SolveP: 29741.9 [ms]
time step continuity errors : sum local = 2.83355e-08, global = 5.96966e-22, cumulative = 8.27679e-21
[INFO] ContinuityError: 110.896 [ms]
[INFO] CorrectBoundary: 4.081 [ms]
[INFO] PISOStep: 31174.6 [ms]
[INFO] TimeStep: 70764.6 [ms]
ExecutionTime = 807.28 s  ClockTime = 811 s

Time = 0.0015

Courant Number mean: 0.0361235 max: 0.60016
[INFO] MatrixAssemblyU: 612.493 [ms]
DILUPBiCGStab:  Solving for Ux, Initial residual = 0.0494149, Final residual = 0.00367598, No Iterations 5
DILUPBiCGStab:  Solving for Uy, Initial residual = 0.214886, Final residual = 0.0120792, No Iterations 5
DILUPBiCGStab:  Solving for Uz, Initial residual = 0.796763, Final residual = 0.0848502, No Iterations 5
[INFO] MomentumPredictor: 7034.63 [ms]
[INFO] MatrixAssemblyPI: 805.862 [ms]
[INFO] AdjustPhi: 52.151 [ms]
[INFO] ConstrainPressure: 0.005 [ms]
[INFO] MatrixAssemblyPII: 230.711 [ms]
GAMG:  Solving for p, Initial residual = 0.972735, Final residual = 8.62351e-05, No Iterations 70
[INFO] SolveP: 51725.2 [ms]
time step continuity errors : sum local = 2.94281e-08, global = 1.78366e-21, cumulative = 1.00605e-20
[INFO] ContinuityError: 110.492 [ms]
[INFO] CorrectBoundary: 2.767 [ms]
[INFO] PISOStep: 53186.7 [ms]
[INFO] MatrixAssemblyPI: 790.149 [ms]
[INFO] AdjustPhi: 45.174 [ms]
[INFO] ConstrainPressure: 0.004 [ms]
[INFO] MatrixAssemblyPII: 230.87 [ms]
GAMG:  Solving for p, Initial residual = 0.909151, Final residual = 9.5497e-05, No Iterations 88
[INFO] SolveP: 65030.6 [ms]
time step continuity errors : sum local = 3.30593e-08, global = 5.05614e-23, cumulative = 1.0111e-20
[INFO] ContinuityError: 110.627 [ms]
[INFO] CorrectBoundary: 1.994 [ms]
[INFO] PISOStep: 66468.8 [ms]
[INFO] TimeStep: 127406 [ms]
ExecutionTime = 934.14 s  ClockTime = 938 s

Time = 0.001625

Courant Number mean: 0.0376404 max: 1.14816
[INFO] MatrixAssemblyU: 612.625 [ms]
DILUPBiCGStab:  Solving for Ux, Initial residual = 0.0540688, Final residual = 0.00360291, No Iterations 5
DILUPBiCGStab:  Solving for Uy, Initial residual = 0.243932, Final residual = 0.0133939, No Iterations 5
DILUPBiCGStab:  Solving for Uz, Initial residual = 0.800761, Final residual = 0.0840079, No Iterations 5
[INFO] MomentumPredictor: 7013.72 [ms]
[INFO] MatrixAssemblyPI: 804.095 [ms]
[INFO] AdjustPhi: 46.441 [ms]
[INFO] ConstrainPressure: 0.004 [ms]
[INFO] MatrixAssemblyPII: 229.581 [ms]
GAMG:  Solving for p, Initial residual = 0.976397, Final residual = 6.74152e-05, No Iterations 95
[INFO] SolveP: 70235.9 [ms]
time step continuity errors : sum local = 2.70324e-08, global = 3.02231e-22, cumulative = 1.04132e-20
[INFO] ContinuityError: 110.17 [ms]
[INFO] CorrectBoundary: 3.459 [ms]
[INFO] PISOStep: 71689.9 [ms]
[INFO] MatrixAssemblyPI: 787.681 [ms]
[INFO] AdjustPhi: 56.319 [ms]
[INFO] ConstrainPressure: 0.004 [ms]
[INFO] MatrixAssemblyPII: 231.143 [ms]
GAMG:  Solving for p, Initial residual = 0.920936, Final residual = 9.67631e-05, No Iterations 42
[INFO] SolveP: 31305.5 [ms]
time step continuity errors : sum local = 3.88791e-08, global = 1.82567e-21, cumulative = 1.22389e-20
[INFO] ContinuityError: 110.766 [ms]
[INFO] CorrectBoundary: 8.938 [ms]
[INFO] PISOStep: 32759.1 [ms]
[INFO] TimeStep: 112179 [ms]
ExecutionTime = 1045.85 s  ClockTime = 1050 s

Time = 0.00175

Courant Number mean: 0.0387131 max: 1.02616
[INFO] MatrixAssemblyU: 612.348 [ms]
DILUPBiCGStab:  Solving for Ux, Initial residual = 0.0623942, Final residual = 0.00393333, No Iterations 5
DILUPBiCGStab:  Solving for Uy, Initial residual = 0.254652, Final residual = 0.0128131, No Iterations 5
DILUPBiCGStab:  Solving for Uz, Initial residual = 0.797876, Final residual = 0.0785413, No Iterations 5
[INFO] MomentumPredictor: 6993.32 [ms]
[INFO] MatrixAssemblyPI: 805.125 [ms]
[INFO] AdjustPhi: 51.947 [ms]
[INFO] ConstrainPressure: 0.004 [ms]
[INFO] MatrixAssemblyPII: 230.609 [ms]
GAMG:  Solving for p, Initial residual = 0.977039, Final residual = 9.61794e-05, No Iterations 41
[INFO] SolveP: 30424 [ms]
time step continuity errors : sum local = 4.54884e-08, global = 1.23917e-21, cumulative = 1.34781e-20
[INFO] ContinuityError: 111.064 [ms]
[INFO] CorrectBoundary: 4.068 [ms]
[INFO] PISOStep: 31885.3 [ms]
[INFO] MatrixAssemblyPI: 790.565 [ms]
[INFO] AdjustPhi: 48.212 [ms]
[INFO] ConstrainPressure: 0.004 [ms]
[INFO] MatrixAssemblyPII: 230.146 [ms]
GAMG:  Solving for p, Initial residual = 0.913243, Final residual = 9.98062e-05, No Iterations 39
[INFO] SolveP: 29037.2 [ms]
time step continuity errors : sum local = 4.78613e-08, global = 1.2508e-21, cumulative = 1.47289e-20
[INFO] ContinuityError: 110.157 [ms]
[INFO] CorrectBoundary: 1.543 [ms]
[INFO] PISOStep: 30477.1 [ms]
[INFO] TimeStep: 70072 [ms]
ExecutionTime = 1115.61 s  ClockTime = 1120 s

Time = 0.001875

Courant Number mean: 0.0402021 max: 1.69126
[INFO] MatrixAssemblyU: 613.701 [ms]
DILUPBiCGStab:  Solving for Ux, Initial residual = 0.0694249, Final residual = 0.00399228, No Iterations 5
DILUPBiCGStab:  Solving for Uy, Initial residual = 0.287512, Final residual = 0.0142261, No Iterations 5
DILUPBiCGStab:  Solving for Uz, Initial residual = 0.80306, Final residual = 0.080596, No Iterations 5
[INFO] MomentumPredictor: 7021.61 [ms]
[INFO] MatrixAssemblyPI: 804.579 [ms]
[INFO] AdjustPhi: 52.622 [ms]
[INFO] ConstrainPressure: 0.004 [ms]
[INFO] MatrixAssemblyPII: 230.108 [ms]
GAMG:  Solving for p, Initial residual = 0.97922, Final residual = 8.60861e-05, No Iterations 40
[INFO] SolveP: 29706.9 [ms]
time step continuity errors : sum local = 4.82242e-08, global = -1.33279e-22, cumulative = 1.45956e-20
[INFO] ContinuityError: 111.337 [ms]
[INFO] CorrectBoundary: 6.108 [ms]
[INFO] PISOStep: 31170.9 [ms]
[INFO] MatrixAssemblyPI: 786.641 [ms]
[INFO] AdjustPhi: 45.051 [ms]
[INFO] ConstrainPressure: 0.003 [ms]
[INFO] MatrixAssemblyPII: 232.243 [ms]
GAMG:  Solving for p, Initial residual = 0.921487, Final residual = 8.14281e-05, No Iterations 39
[INFO] SolveP: 28982.9 [ms]
time step continuity errors : sum local = 4.5792e-08, global = 2.13413e-22, cumulative = 1.4809e-20
[INFO] ContinuityError: 110.383 [ms]
[INFO] CorrectBoundary: 3.326 [ms]
[INFO] PISOStep: 30417.1 [ms]
[INFO] TimeStep: 69327.9 [ms]
ExecutionTime = 1184.64 s  ClockTime = 1190 s

Time = 0.002

Courant Number mean: 0.0412125 max: 1.73532
[INFO] MatrixAssemblyU: 613.555 [ms]
DILUPBiCGStab:  Solving for Ux, Initial residual = 0.081384, Final residual = 0.00445852, No Iterations 5
DILUPBiCGStab:  Solving for Uy, Initial residual = 0.304777, Final residual = 0.0141066, No Iterations 5
DILUPBiCGStab:  Solving for Uz, Initial residual = 0.799239, Final residual = 0.0738403, No Iterations 5
[INFO] MomentumPredictor: 7015.95 [ms]
[INFO] MatrixAssemblyPI: 806.899 [ms]
[INFO] AdjustPhi: 44.714 [ms]
[INFO] ConstrainPressure: 0.004 [ms]
[INFO] MatrixAssemblyPII: 230.693 [ms]
GAMG:  Solving for p, Initial residual = 0.98034, Final residual = 8.04056e-05, No Iterations 42
[INFO] SolveP: 31185.5 [ms]
time step continuity errors : sum local = 5.33918e-08, global = 1.70415e-21, cumulative = 1.65132e-20
[INFO] ContinuityError: 110.16 [ms]
[INFO] CorrectBoundary: 2.754 [ms]
[INFO] PISOStep: 32639.1 [ms]
[INFO] MatrixAssemblyPI: 788.019 [ms]
[INFO] AdjustPhi: 56.735 [ms]
[INFO] ConstrainPressure: 0.004 [ms]
[INFO] MatrixAssemblyPII: 230.585 [ms]
GAMG:  Solving for p, Initial residual = 0.916386, Final residual = 8.68909e-05, No Iterations 46
[INFO] SolveP: 34255.9 [ms]
time step continuity errors : sum local = 5.82359e-08, global = 1.66532e-21, cumulative = 1.81785e-20
[INFO] ContinuityError: 110.692 [ms]
[INFO] CorrectBoundary: 2.459 [ms]
[INFO] PISOStep: 35704.5 [ms]
[INFO] TimeStep: 76076.9 [ms]
ExecutionTime = 1260.4 s  ClockTime = 1266 s

Time = 0.002125

Courant Number mean: 0.0427425 max: 2.57854
[INFO] MatrixAssemblyU: 613.597 [ms]
DILUPBiCGStab:  Solving for Ux, Initial residual = 0.091501, Final residual = 0.00467488, No Iterations 5
DILUPBiCGStab:  Solving for Uy, Initial residual = 0.340681, Final residual = 0.0155866, No Iterations 5
DILUPBiCGStab:  Solving for Uz, Initial residual = 0.797613, Final residual = 0.0708987, No Iterations 5
[INFO] MomentumPredictor: 7016.42 [ms]
[INFO] MatrixAssemblyPI: 802.211 [ms]
[INFO] AdjustPhi: 52.304 [ms]
[INFO] ConstrainPressure: 0.004 [ms]
[INFO] MatrixAssemblyPII: 230.261 [ms]
GAMG:  Solving for p, Initial residual = 0.981373, Final residual = 5.45724e-05, No Iterations 42
[INFO] SolveP: 31192.3 [ms]
time step continuity errors : sum local = 4.31826e-08, global = 1.44064e-21, cumulative = 1.96191e-20
[INFO] ContinuityError: 110.94 [ms]
[INFO] CorrectBoundary: 2.087 [ms]
[INFO] PISOStep: 32649.6 [ms]
[INFO] MatrixAssemblyPI: 790.025 [ms]
[INFO] AdjustPhi: 43.542 [ms]
[INFO] ConstrainPressure: 0.004 [ms]
[INFO] MatrixAssemblyPII: 230.205 [ms]
GAMG:  Solving for p, Initial residual = 0.92146, Final residual = 8.36196e-05, No Iterations 41
[INFO] SolveP: 30454.3 [ms]
time step continuity errors : sum local = 6.64813e-08, global = 8.36745e-22, cumulative = 2.04559e-20
[INFO] ContinuityError: 111.167 [ms]
[INFO] CorrectBoundary: 3.257 [ms]
[INFO] PISOStep: 31890.1 [ms]
[INFO] TimeStep: 72273.2 [ms]
ExecutionTime = 1332.36 s  ClockTime = 1338 s

Time = 0.00225

Courant Number mean: 0.0437678 max: 2.90056
[INFO] MatrixAssemblyU: 610.801 [ms]
DILUPBiCGStab:  Solving for Ux, Initial residual = 0.108616, Final residual = 0.00533499, No Iterations 5
DILUPBiCGStab:  Solving for Uy, Initial residual = 0.364041, Final residual = 0.0158085, No Iterations 5
DILUPBiCGStab:  Solving for Uz, Initial residual = 0.79231, Final residual = 0.0638997, No Iterations 5
[INFO] MomentumPredictor: 6993.7 [ms]
[INFO] MatrixAssemblyPI: 804.282 [ms]
[INFO] AdjustPhi: 45.224 [ms]
[INFO] ConstrainPressure: 0.004 [ms]
[INFO] MatrixAssemblyPII: 231.279 [ms]
GAMG:  Solving for p, Initial residual = 0.982605, Final residual = 8.70674e-05, No Iterations 62
[INFO] SolveP: 45865.6 [ms]
time step continuity errors : sum local = 8.23059e-08, global = -1.79757e-22, cumulative = 2.02761e-20
[INFO] ContinuityError: 110.615 [ms]
[INFO] CorrectBoundary: 2.771 [ms]
[INFO] PISOStep: 47317.9 [ms]
[INFO] MatrixAssemblyPI: 790.613 [ms]
[INFO] AdjustPhi: 47.267 [ms]
[INFO] ConstrainPressure: 0.003 [ms]
[INFO] MatrixAssemblyPII: 230.686 [ms]
GAMG:  Solving for p, Initial residual = 0.918411, Final residual = 9.96364e-05, No Iterations 96
[INFO] SolveP: 71076.7 [ms]
time step continuity errors : sum local = 9.51617e-08, global = -2.00736e-21, cumulative = 1.82687e-20
[INFO] ContinuityError: 110.745 [ms]
[INFO] CorrectBoundary: 1.962 [ms]
[INFO] PISOStep: 72519.4 [ms]
[INFO] TimeStep: 127545 [ms]
ExecutionTime = 1459.36 s  ClockTime = 1466 s

Time = 0.002375

Courant Number mean: 0.0454257 max: 4.02774
[INFO] MatrixAssemblyU: 612.835 [ms]
DILUPBiCGStab:  Solving for Ux, Initial residual = 0.122679, Final residual = 0.00571927, No Iterations 5
DILUPBiCGStab:  Solving for Uy, Initial residual = 0.401131, Final residual = 0.017329, No Iterations 5
DILUPBiCGStab:  Solving for Uz, Initial residual = 0.797238, Final residual = 0.0690307, No Iterations 5
[INFO] MomentumPredictor: 7006.44 [ms]
[INFO] MatrixAssemblyPI: 805.868 [ms]
[INFO] AdjustPhi: 45.142 [ms]
[INFO] ConstrainPressure: 0.004 [ms]
[INFO] MatrixAssemblyPII: 229.823 [ms]
GAMG:  Solving for p, Initial residual = 0.983069, Final residual = 9.76642e-05, No Iterations 102
[INFO] SolveP: 75342 [ms]
time step continuity errors : sum local = 1.11304e-07, global = -2.13206e-21, cumulative = 1.61367e-20
[INFO] ContinuityError: 110.848 [ms]
[INFO] CorrectBoundary: 3.29 [ms]
[INFO] PISOStep: 76799.8 [ms]
[INFO] MatrixAssemblyPI: 787.855 [ms]
[INFO] AdjustPhi: 50.171 [ms]
[INFO] ConstrainPressure: 0.004 [ms]
[INFO] MatrixAssemblyPII: 230.948 [ms]
GAMG:  Solving for p, Initial residual = 0.921783, Final residual = 6.20881e-05, No Iterations 43
[INFO] SolveP: 32063.9 [ms]
time step continuity errors : sum local = 7.10948e-08, global = 1.15019e-21, cumulative = 1.72869e-20
[INFO] ContinuityError: 110.832 [ms]
[INFO] CorrectBoundary: 2.155 [ms]
[INFO] PISOStep: 33505.1 [ms]
[INFO] TimeStep: 118028 [ms]
ExecutionTime = 1576.87 s  ClockTime = 1584 s

Time = 0.0025

Courant Number mean: 0.0466024 max: 4.7998
[INFO] MatrixAssemblyU: 611.687 [ms]
DILUPBiCGStab:  Solving for Ux, Initial residual = 0.14684, Final residual = 0.00668237, No Iterations 5
DILUPBiCGStab:  Solving for Uy, Initial residual = 0.429218, Final residual = 0.0178918, No Iterations 5
DILUPBiCGStab:  Solving for Uz, Initial residual = 0.794002, Final residual = 0.0635802, No Iterations 5
[INFO] MomentumPredictor: 6985.43 [ms]
[INFO] MatrixAssemblyPI: 802.544 [ms]
[INFO] AdjustPhi: 45.52 [ms]
[INFO] ConstrainPressure: 0.004 [ms]
[INFO] MatrixAssemblyPII: 230.392 [ms]
GAMG:  Solving for p, Initial residual = 0.983974, Final residual = 8.99825e-05, No Iterations 57
[INFO] SolveP: 42200.5 [ms]
time step continuity errors : sum local = 1.23153e-07, global = -2.02659e-22, cumulative = 1.70842e-20
[INFO] ContinuityError: 110.986 [ms]
[INFO] CorrectBoundary: 3.217 [ms]
[INFO] PISOStep: 43651.9 [ms]
[INFO] MatrixAssemblyPI: 787.916 [ms]
[INFO] AdjustPhi: 52.163 [ms]
[INFO] ConstrainPressure: 0.004 [ms]
[INFO] MatrixAssemblyPII: 231.633 [ms]
GAMG:  Solving for p, Initial residual = 0.919868, Final residual = 9.74537e-05, No Iterations 57
[INFO] SolveP: 42295.8 [ms]
time step continuity errors : sum local = 1.34664e-07, global = 1.21937e-21, cumulative = 1.83036e-20
[INFO] ContinuityError: 111.034 [ms]
[INFO] CorrectBoundary: 3.041 [ms]
[INFO] PISOStep: 43739.5 [ms]
[INFO] TimeStep: 95092.2 [ms]
ExecutionTime = 1671.55 s  ClockTime = 1679 s

End

Finalising parallel run
