/*---------------------------------------------------------------------------*\
| =========                 |                                                 |
| \\      /  F ield         | OpenFOAM: The Open Source CFD Toolbox           |
|  \\    /   O peration     | Version:  2306                                  |
|   \\  /    A nd           | Website:  www.openfoam.com                      |
|    \\/     M anipulation  |                                                 |
\*---------------------------------------------------------------------------*/
Build  : a6e826bd55-20230630 OPENFOAM=2306 version=v2306
Arch   : "LSB;label=32;scalar=64"
Exec   : icoFoam -parallel -case /tmp/lidDrivenCavity/workspace/584ebc69251a48f9131a388052122df7/case
Date   : Dec 21 2023
Time   : 02:17:43
Host   : nla-gpu2.ianm.kit.edu
PID    : 391759
I/O    : uncollated
Case   : /tmp/lidDrivenCavity/workspace/584ebc69251a48f9131a388052122df7/case
nProcs : 16
Hosts  :
(
    (nla-gpu2.ianm.kit.edu 16)
)
Pstream initialized with:
    floatTransfer      : false
    nProcsSimpleSum    : 0
    nonBlockingExchange: 0 (tuning: 0)
    exchange algorithm : -1
    commsType          : nonBlocking
    polling iterations : 0
trapFpe: Floating point exception trapping enabled (FOAM_SIGFPE).
fileModificationChecking : Monitoring run-time modified files using timeStampMaster (fileModificationSkew 5, maxFileModificationPolls 20)
allowSystemOperations : Allowing user-supplied system call operations

// * * * * * * * * * * * * * * * * * * * * * * * * * * * * * * * * * * * * * //
Create time

--> FOAM Warning : 
    From void* Foam::dlLibraryTable::openLibrary(const Foam::fileName&, bool)
    in file db/dynamicLibrary/dlLibraryTable/dlLibraryTable.C at line 188
    Could not load "libpetscFoam.so"
libpetscFoam.so: cannot open shared object file: No such file or directory
Create mesh for time = 0


PISO: Operating solver in PISO mode

Reading transportProperties

Reading field p

Reading field U

Reading/calculating face flux field phi


Starting time loop

Time = 0.000166

Courant Number mean: 8.14055e-18 max: 3.11001e-14
[INFO] MatrixAssemblyU: 247.824 [ms]
DILUPBiCGStab:  Solving for Ux, Initial residual = 1, Final residual = 0.0163135, No Iterations 5
DILUPBiCGStab:  Solving for Uy:  solution singularity
DILUPBiCGStab:  Solving for Uz:  solution singularity
[INFO] MomentumPredictor: 962.894 [ms]
[INFO] MatrixAssemblyPI: 249.457 [ms]
[INFO] AdjustPhi: 14.077 [ms]
[INFO] ConstrainPressure: 0.011 [ms]
[INFO] MatrixAssemblyPII: 71.45 [ms]
[OGL LOG][lduLduBase.H:119] Initialising OGL
	OGL commit:  1421b02+
	Branch: feat/on_device_permute 
	Build type: Release
	Ginkgo version: 1.7.0 ( develop)
	Ginkgo commit: sparse-communicator
	MPI is GPU aware: 1
	Forces host buffer based communication: 0
	CPU ranks per GPU: 1
	Matrix format: Ell
	End OGL_INFO
[OGL LOG][Proc: 0]: global_index_init: 13.713 [ms]
[OGL LOG][Proc: 0]p_local_cols: call_init: 0.041 [ms]
[OGL LOG][Proc: 0]p_local_rows: call_init: 0.011 [ms]
[OGL LOG][Proc: 0]p_local_ldu_map: call_init: 0.006 [ms]
[OGL LOG][Proc: 0]p_local_coeffs: call_init: 0.294 [ms]
[OGL LOG][Proc: 0]p_non_local_cols: call_init: 0.005 [ms]
[OGL LOG][Proc: 0]p_non_local_rows: call_init: 0.003 [ms]
[OGL LOG][Proc: 0]p_non_local_ldu_map: call_init: 0.002 [ms]
[OGL LOG][Proc: 0]p_non_local_coeffs: call_init: 0.002 [ms]
[OGL LOG][Proc: 0]p: init_local_sparsity_pattern: 463 [ms]
[OGL LOG][Proc: 0]p: init_non_local_sparsity_pattern: 2.432 [ms]
[OGL LOG][Proc: 0]p: update_local_matrix_data: 80.032 [ms]
[OGL LOG][Proc: 0]p: update_non_local_matrix_data: 0.307 [ms]
[OGL LOG][Proc: 0]device_partition: call_init: 0.151 [ms]
[OGL LOG][Proc: 0]p_matrix: call_init: 154.794 [ms]
[OGL LOG][Proc: 0]p_rhs: call_init: 16.794 [ms]
[OGL LOG][Proc: 0]p_solution: call_init: 1.921 [ms]
[OGL LOG][Proc: 0]p: init_precond: 0.101 [ms]
[OGL LOG][StoppingCriterion.H:237] Creating stopping criterion with minIter 0 frequency 1
[OGL LOG][Proc: 0]p: generate_solver: 0.032 [ms]
[OGL LOG][Proc: 0]p: solve: 5637.03 [ms]
[OGL LOG][Proc: 0]p: copy_x_back: 5.865 [ms]
[OGL LOG][lduLduBase.H:330] 
Statistics:
	Time per iteration: 2319 [mu s]
	Time per residual norm calculation: 1201.000000 [mu s]
	Time per iteration and DOF: 0.085889 [ns]
	Retrieve results bandwidth 2.301000 [GByte/s]
[OGL LOG][Proc: 0]p: solve_multi_gpu: 5820.9 [ms]
nonehipGKOCG:  Solving for p, Initial residual = 1, Final residual = 9.97936e-05, No Iterations 2430
[INFO] SolveP: 6630.14 [ms]
time step continuity errors : sum local = 4.03247e-09, global = 2.31944e-21, cumulative = 2.31944e-21
[INFO] ContinuityError: 30.416 [ms]
[INFO] CorrectBoundary: 1.32 [ms]
[INFO] PISOStep: 7082.27 [ms]
[INFO] MatrixAssemblyPI: 237.043 [ms]
[INFO] AdjustPhi: 12.932 [ms]
[INFO] ConstrainPressure: 0.016 [ms]
[INFO] MatrixAssemblyPII: 70.544 [ms]
[OGL LOG][Proc: 0]: global_index_init: 0.034 [ms]
[OGL LOG][Proc: 0]p_local_coeffs: call_update: 0.004 [ms]
[OGL LOG][Proc: 0]p_non_local_coeffs: call_update: 0 [ms]
[OGL LOG][Proc: 0]p: update_local_matrix_data: 43.306 [ms]
[OGL LOG][Proc: 0]p: update_non_local_matrix_data: 0.254 [ms]
[OGL LOG][Proc: 0]p: regenerate_distributed_matrix: 122.337 [ms]
[OGL LOG][Proc: 0]p_matrix: call_update: 133.324 [ms]
[OGL LOG][Proc: 0]p_rhs: call_update: 30.476 [ms]
[OGL LOG][Proc: 0]p: init_precond: 0.07 [ms]
[OGL LOG][StoppingCriterion.H:237] Creating stopping criterion with minIter 1458 frequency 31
[OGL LOG][Proc: 0]p: generate_solver: 0.004 [ms]
[OGL LOG][Proc: 0]p: solve: 3558.84 [ms]
[OGL LOG][Proc: 0]p: copy_x_back: 6.183 [ms]
[OGL LOG][lduLduBase.H:330] 
Statistics:
	Time per iteration: 1471 [mu s]
	Time per residual norm calculation: 349.000000 [mu s]
	Time per iteration and DOF: 0.054481 [ns]
	Retrieve results bandwidth 2.183000 [GByte/s]
[OGL LOG][Proc: 0]p: solve_multi_gpu: 3735.12 [ms]
nonehipGKOCG:  Solving for p, Initial residual = 0.80945, Final residual = 9.57433e-05, No Iterations 2419
[INFO] SolveP: 3787.38 [ms]
time step continuity errors : sum local = 4.72242e-09, global = 6.12126e-22, cumulative = 2.93157e-21
[INFO] ContinuityError: 30.482 [ms]
[INFO] CorrectBoundary: 1.527 [ms]
[INFO] PISOStep: 4225.3 [ms]
[INFO] TimeStep: 12549.4 [ms]
ExecutionTime = 16.17 s  ClockTime = 14 s

Time = 0.000332

Courant Number mean: 0.0128238 max: 0.426584
[INFO] MatrixAssemblyU: 215.26 [ms]
DILUPBiCGStab:  Solving for Ux, Initial residual = 0.116949, Final residual = 0.00979522, No Iterations 5
DILUPBiCGStab:  Solving for Uy, Initial residual = 0.460127, Final residual = 0.0314341, No Iterations 5
DILUPBiCGStab:  Solving for Uz, Initial residual = 0.988822, Final residual = 0.0739798, No Iterations 5
[INFO] MomentumPredictor: 1782.01 [ms]
[INFO] MatrixAssemblyPI: 242.889 [ms]
[INFO] AdjustPhi: 12.165 [ms]
[INFO] ConstrainPressure: 0.015 [ms]
[INFO] MatrixAssemblyPII: 71.006 [ms]
[OGL LOG][Proc: 0]: global_index_init: 0.058 [ms]
[OGL LOG][Proc: 0]p_local_coeffs: call_update: 0 [ms]
[OGL LOG][Proc: 0]p_non_local_coeffs: call_update: 0 [ms]
[OGL LOG][Proc: 0]p: update_local_matrix_data: 41.931 [ms]
[OGL LOG][Proc: 0]p: update_non_local_matrix_data: 0.232 [ms]
[OGL LOG][Proc: 0]p: regenerate_distributed_matrix: 123.399 [ms]
[OGL LOG][Proc: 0]p_matrix: call_update: 128.911 [ms]
[OGL LOG][Proc: 0]p_rhs: call_update: 16.261 [ms]
[OGL LOG][Proc: 0]p: init_precond: 0.062 [ms]
[OGL LOG][StoppingCriterion.H:237] Creating stopping criterion with minIter 1451 frequency 15
[OGL LOG][Proc: 0]p: generate_solver: 0.005 [ms]
[OGL LOG][Proc: 0]p: solve: 3473.99 [ms]
[OGL LOG][Proc: 0]p: copy_x_back: 5.546 [ms]
[OGL LOG][lduLduBase.H:330] 
Statistics:
	Time per iteration: 1455 [mu s]
	Time per residual norm calculation: 370.000000 [mu s]
	Time per iteration and DOF: 0.053889 [ns]
	Retrieve results bandwidth 2.434000 [GByte/s]
[OGL LOG][Proc: 0]p: solve_multi_gpu: 3632.57 [ms]
nonehipGKOCG:  Solving for p, Initial residual = 0.879094, Final residual = 8.22861e-05, No Iterations 2386
[INFO] SolveP: 3683.68 [ms]
time step continuity errors : sum local = 7.86766e-09, global = 1.75324e-21, cumulative = 4.6848e-21
[INFO] ContinuityError: 34.234 [ms]
[INFO] CorrectBoundary: 0.618 [ms]
[INFO] PISOStep: 4128.39 [ms]
[INFO] MatrixAssemblyPI: 238.999 [ms]
[INFO] AdjustPhi: 13.759 [ms]
[INFO] ConstrainPressure: 0.004 [ms]
[INFO] MatrixAssemblyPII: 68.421 [ms]
[OGL LOG][Proc: 0]: global_index_init: 1.02 [ms]
[OGL LOG][Proc: 0]p_local_coeffs: call_update: 0 [ms]
[OGL LOG][Proc: 0]p_non_local_coeffs: call_update: 0 [ms]
[OGL LOG][Proc: 0]p: update_local_matrix_data: 43.05 [ms]
[OGL LOG][Proc: 0]p: update_non_local_matrix_data: 0.236 [ms]
[OGL LOG][Proc: 0]p: regenerate_distributed_matrix: 125.735 [ms]
[OGL LOG][Proc: 0]p_matrix: call_update: 126.98 [ms]
[OGL LOG][Proc: 0]p_rhs: call_update: 27.555 [ms]
[OGL LOG][Proc: 0]p: init_precond: 0.056 [ms]
[OGL LOG][StoppingCriterion.H:237] Creating stopping criterion with minIter 1431 frequency 17
[OGL LOG][Proc: 0]p: generate_solver: 0.005 [ms]
[OGL LOG][Proc: 0]p: solve: 3523.66 [ms]
[OGL LOG][Proc: 0]p: copy_x_back: 4.816 [ms]
[OGL LOG][lduLduBase.H:330] 
Statistics:
	Time per iteration: 1479 [mu s]
	Time per residual norm calculation: 352.000000 [mu s]
	Time per iteration and DOF: 0.054778 [ns]
	Retrieve results bandwidth 2.803000 [GByte/s]
[OGL LOG][Proc: 0]p: solve_multi_gpu: 3697.11 [ms]
nonehipGKOCG:  Solving for p, Initial residual = 0.827177, Final residual = 8.71996e-05, No Iterations 2381
[INFO] SolveP: 3750.22 [ms]
time step continuity errors : sum local = 8.49138e-09, global = 5.82166e-22, cumulative = 5.26697e-21
[INFO] ContinuityError: 31.805 [ms]
[INFO] CorrectBoundary: 0.753 [ms]
[INFO] PISOStep: 4192.42 [ms]
[INFO] TimeStep: 10348.7 [ms]
ExecutionTime = 29.13 s  ClockTime = 25 s

Time = 0.000498

Courant Number mean: 0.0197919 max: 0.49188
[INFO] MatrixAssemblyU: 214.744 [ms]
DILUPBiCGStab:  Solving for Ux, Initial residual = 0.0544438, Final residual = 0.00365185, No Iterations 5
DILUPBiCGStab:  Solving for Uy, Initial residual = 0.226344, Final residual = 0.0163738, No Iterations 5
DILUPBiCGStab:  Solving for Uz, Initial residual = 0.850515, Final residual = 0.0546851, No Iterations 5
[INFO] MomentumPredictor: 1781.02 [ms]
[INFO] MatrixAssemblyPI: 244.544 [ms]
[INFO] AdjustPhi: 12.049 [ms]
[INFO] ConstrainPressure: 0.005 [ms]
[INFO] MatrixAssemblyPII: 70.97 [ms]
[OGL LOG][Proc: 0]: global_index_init: 0.06 [ms]
[OGL LOG][Proc: 0]p_local_coeffs: call_update: 0 [ms]
[OGL LOG][Proc: 0]p_non_local_coeffs: call_update: 0 [ms]
[OGL LOG][Proc: 0]p: update_local_matrix_data: 42.14 [ms]
[OGL LOG][Proc: 0]p: update_non_local_matrix_data: 0.241 [ms]
[OGL LOG][Proc: 0]p: regenerate_distributed_matrix: 121.714 [ms]
[OGL LOG][Proc: 0]p_matrix: call_update: 122.987 [ms]
[OGL LOG][Proc: 0]p_rhs: call_update: 14.685 [ms]
[OGL LOG][Proc: 0]p: init_precond: 0.063 [ms]
[OGL LOG][StoppingCriterion.H:237] Creating stopping criterion with minIter 1428 frequency 15
[OGL LOG][Proc: 0]p: generate_solver: 0.004 [ms]
[OGL LOG][Proc: 0]p: solve: 2169.9 [ms]
[OGL LOG][Proc: 0]p: copy_x_back: 5.616 [ms]
[OGL LOG][lduLduBase.H:330] 
Statistics:
	Time per iteration: 1505 [mu s]
	Time per residual norm calculation: 356.000000 [mu s]
	Time per iteration and DOF: 0.055741 [ns]
	Retrieve results bandwidth 2.403000 [GByte/s]
[OGL LOG][Proc: 0]p: solve_multi_gpu: 2319.75 [ms]
nonehipGKOCG:  Solving for p, Initial residual = 0.914226, Final residual = 7.70982e-05, No Iterations 1441
[INFO] SolveP: 2371.41 [ms]
time step continuity errors : sum local = 8.56363e-09, global = 1.31236e-22, cumulative = 5.39821e-21
[INFO] ContinuityError: 32.741 [ms]
[INFO] CorrectBoundary: 0.872 [ms]
[INFO] PISOStep: 2815.12 [ms]
[INFO] MatrixAssemblyPI: 236.989 [ms]
[INFO] AdjustPhi: 12.622 [ms]
[INFO] ConstrainPressure: 0.005 [ms]
[INFO] MatrixAssemblyPII: 71.334 [ms]
[OGL LOG][Proc: 0]: global_index_init: 0.095 [ms]
[OGL LOG][Proc: 0]p_local_coeffs: call_update: 0 [ms]
[OGL LOG][Proc: 0]p_non_local_coeffs: call_update: 0 [ms]
[OGL LOG][Proc: 0]p: update_local_matrix_data: 41.44 [ms]
[OGL LOG][Proc: 0]p: update_non_local_matrix_data: 0.159 [ms]
[OGL LOG][Proc: 0]p: regenerate_distributed_matrix: 117.772 [ms]
[OGL LOG][Proc: 0]p_matrix: call_update: 119.022 [ms]
[OGL LOG][Proc: 0]p_rhs: call_update: 13.71 [ms]
[OGL LOG][Proc: 0]p: init_precond: 0.057 [ms]
[OGL LOG][StoppingCriterion.H:237] Creating stopping criterion with minIter 864 frequency 12
[OGL LOG][Proc: 0]p: generate_solver: 0.004 [ms]
[OGL LOG][Proc: 0]p: solve: 1738.1 [ms]
[OGL LOG][Proc: 0]p: copy_x_back: 5.359 [ms]
[OGL LOG][lduLduBase.H:330] 
Statistics:
	Time per iteration: 1507 [mu s]
	Time per residual norm calculation: 337.000000 [mu s]
	Time per iteration and DOF: 0.055815 [ns]
	Retrieve results bandwidth 2.519000 [GByte/s]
[OGL LOG][Proc: 0]p: solve_multi_gpu: 1888.21 [ms]
nonehipGKOCG:  Solving for p, Initial residual = 0.882789, Final residual = 9.56511e-05, No Iterations 1153
[INFO] SolveP: 1939.22 [ms]
time step continuity errors : sum local = 1.00329e-08, global = 8.39899e-22, cumulative = 6.2381e-21
[INFO] ContinuityError: 34.443 [ms]
[INFO] CorrectBoundary: 1.323 [ms]
[INFO] PISOStep: 2376.76 [ms]
[INFO] TimeStep: 7216.37 [ms]
ExecutionTime = 37.75 s  ClockTime = 32 s

Time = 0.000664

Courant Number mean: 0.0238776 max: 0.471995
[INFO] MatrixAssemblyU: 211.762 [ms]
DILUPBiCGStab:  Solving for Ux, Initial residual = 0.0385207, Final residual = 0.00293223, No Iterations 5
DILUPBiCGStab:  Solving for Uy, Initial residual = 0.174015, Final residual = 0.0133284, No Iterations 5
DILUPBiCGStab:  Solving for Uz, Initial residual = 0.735175, Final residual = 0.0386961, No Iterations 5
[INFO] MomentumPredictor: 1779.68 [ms]
[INFO] MatrixAssemblyPI: 242.672 [ms]
[INFO] AdjustPhi: 13.569 [ms]
[INFO] ConstrainPressure: 0.008 [ms]
[INFO] MatrixAssemblyPII: 70.99 [ms]
[OGL LOG][Proc: 0]: global_index_init: 0.043 [ms]
[OGL LOG][Proc: 0]p_local_coeffs: call_update: 0 [ms]
[OGL LOG][Proc: 0]p_non_local_coeffs: call_update: 0 [ms]
[OGL LOG][Proc: 0]p: update_local_matrix_data: 42.007 [ms]
[OGL LOG][Proc: 0]p: update_non_local_matrix_data: 0.231 [ms]
[OGL LOG][Proc: 0]p: regenerate_distributed_matrix: 120.036 [ms]
[OGL LOG][Proc: 0]p_matrix: call_update: 121.284 [ms]
[OGL LOG][Proc: 0]p_rhs: call_update: 14.551 [ms]
[OGL LOG][Proc: 0]p: init_precond: 0.063 [ms]
[OGL LOG][StoppingCriterion.H:237] Creating stopping criterion with minIter 691 frequency 10
[OGL LOG][Proc: 0]p: generate_solver: 0.004 [ms]
[OGL LOG][Proc: 0]p: solve: 1746.87 [ms]
[OGL LOG][Proc: 0]p: copy_x_back: 5.375 [ms]
[OGL LOG][lduLduBase.H:330] 
Statistics:
	Time per iteration: 1504 [mu s]
	Time per residual norm calculation: 353.000000 [mu s]
	Time per iteration and DOF: 0.055704 [ns]
	Retrieve results bandwidth 2.511000 [GByte/s]
[OGL LOG][Proc: 0]p: solve_multi_gpu: 1896.41 [ms]
nonehipGKOCG:  Solving for p, Initial residual = 0.891179, Final residual = 9.51191e-05, No Iterations 1161
[INFO] SolveP: 1949.12 [ms]
time step continuity errors : sum local = 1.14484e-08, global = 3.68065e-22, cumulative = 6.60617e-21
[INFO] ContinuityError: 29.599 [ms]
[INFO] CorrectBoundary: 1 [ms]
[INFO] PISOStep: 2387.46 [ms]
[INFO] MatrixAssemblyPI: 231.896 [ms]
[INFO] AdjustPhi: 17.385 [ms]
[INFO] ConstrainPressure: 0.004 [ms]
[INFO] MatrixAssemblyPII: 71.192 [ms]
[OGL LOG][Proc: 0]: global_index_init: 0.139 [ms]
[OGL LOG][Proc: 0]p_local_coeffs: call_update: 0 [ms]
[OGL LOG][Proc: 0]p_non_local_coeffs: call_update: 0 [ms]
[OGL LOG][Proc: 0]p: update_local_matrix_data: 44.765 [ms]
[OGL LOG][Proc: 0]p: update_non_local_matrix_data: 0.174 [ms]
[OGL LOG][Proc: 0]p: regenerate_distributed_matrix: 130.282 [ms]
[OGL LOG][Proc: 0]p_matrix: call_update: 131.557 [ms]
[OGL LOG][Proc: 0]p_rhs: call_update: 12.484 [ms]
[OGL LOG][Proc: 0]p: init_precond: 0.057 [ms]
[OGL LOG][StoppingCriterion.H:237] Creating stopping criterion with minIter 696 frequency 10
[OGL LOG][Proc: 0]p: generate_solver: 0.004 [ms]
[OGL LOG][Proc: 0]p: solve: 1797.37 [ms]
[OGL LOG][Proc: 0]p: copy_x_back: 4.785 [ms]
[OGL LOG][lduLduBase.H:330] 
Statistics:
	Time per iteration: 1561 [mu s]
	Time per residual norm calculation: 341.000000 [mu s]
	Time per iteration and DOF: 0.057815 [ns]
	Retrieve results bandwidth 2.821000 [GByte/s]
[OGL LOG][Proc: 0]p: solve_multi_gpu: 1956.48 [ms]
nonehipGKOCG:  Solving for p, Initial residual = 0.831002, Final residual = 8.94801e-05, No Iterations 1151
[INFO] SolveP: 2013.87 [ms]
time step continuity errors : sum local = 1.04389e-08, global = 5.41009e-23, cumulative = 6.66027e-21
[INFO] ContinuityError: 31.795 [ms]
[INFO] CorrectBoundary: 0.659 [ms]
[INFO] PISOStep: 2448.55 [ms]
[INFO] TimeStep: 6856.66 [ms]
ExecutionTime = 45.89 s  ClockTime = 39 s

Time = 0.00083

Courant Number mean: 0.0273919 max: 0.505184
[INFO] MatrixAssemblyU: 211.185 [ms]
DILUPBiCGStab:  Solving for Ux, Initial residual = 0.0324285, Final residual = 0.00250835, No Iterations 5
DILUPBiCGStab:  Solving for Uy, Initial residual = 0.129831, Final residual = 0.0113453, No Iterations 5
DILUPBiCGStab:  Solving for Uz, Initial residual = 0.68556, Final residual = 0.0343719, No Iterations 5
[INFO] MomentumPredictor: 1768.82 [ms]
[INFO] MatrixAssemblyPI: 240.075 [ms]
[INFO] AdjustPhi: 16.205 [ms]
[INFO] ConstrainPressure: 0.004 [ms]
[INFO] MatrixAssemblyPII: 70.895 [ms]
[OGL LOG][Proc: 0]: global_index_init: 0.102 [ms]
[OGL LOG][Proc: 0]p_local_coeffs: call_update: 0 [ms]
[OGL LOG][Proc: 0]p_non_local_coeffs: call_update: 0 [ms]
[OGL LOG][Proc: 0]p: update_local_matrix_data: 44.723 [ms]
[OGL LOG][Proc: 0]p: update_non_local_matrix_data: 0.178 [ms]
[OGL LOG][Proc: 0]p: regenerate_distributed_matrix: 123.953 [ms]
[OGL LOG][Proc: 0]p_matrix: call_update: 125.249 [ms]
[OGL LOG][Proc: 0]p_rhs: call_update: 8.236 [ms]
[OGL LOG][Proc: 0]p: init_precond: 0.061 [ms]
[OGL LOG][StoppingCriterion.H:237] Creating stopping criterion with minIter 690 frequency 10
[OGL LOG][Proc: 0]p: generate_solver: 0.004 [ms]
[OGL LOG][Proc: 0]p: solve: 3585.06 [ms]
[OGL LOG][Proc: 0]p: copy_x_back: 5.294 [ms]
[OGL LOG][lduLduBase.H:330] 
Statistics:
	Time per iteration: 1505 [mu s]
	Time per residual norm calculation: 341.000000 [mu s]
	Time per iteration and DOF: 0.055741 [ns]
	Retrieve results bandwidth 2.550000 [GByte/s]
[OGL LOG][Proc: 0]p: solve_multi_gpu: 3729.28 [ms]
nonehipGKOCG:  Solving for p, Initial residual = 0.911492, Final residual = 8.84589e-05, No Iterations 2381
[INFO] SolveP: 3785.46 [ms]
time step continuity errors : sum local = 9.84385e-09, global = 7.35855e-22, cumulative = 7.39613e-21
[INFO] ContinuityError: 31.264 [ms]
[INFO] CorrectBoundary: 1.314 [ms]
[INFO] PISOStep: 4226.16 [ms]
[INFO] MatrixAssemblyPI: 234.343 [ms]
[INFO] AdjustPhi: 15.192 [ms]
[INFO] ConstrainPressure: 0.005 [ms]
[INFO] MatrixAssemblyPII: 70.804 [ms]
[OGL LOG][Proc: 0]: global_index_init: 0.041 [ms]
[OGL LOG][Proc: 0]p_local_coeffs: call_update: 0 [ms]
[OGL LOG][Proc: 0]p_non_local_coeffs: call_update: 0 [ms]
[OGL LOG][Proc: 0]p: update_local_matrix_data: 46.469 [ms]
[OGL LOG][Proc: 0]p: update_non_local_matrix_data: 0.244 [ms]
[OGL LOG][Proc: 0]p: regenerate_distributed_matrix: 121.087 [ms]
[OGL LOG][Proc: 0]p_matrix: call_update: 122.365 [ms]
[OGL LOG][Proc: 0]p_rhs: call_update: 15.652 [ms]
[OGL LOG][Proc: 0]p: init_precond: 0.061 [ms]
[OGL LOG][StoppingCriterion.H:237] Creating stopping criterion with minIter 1428 frequency 15
[OGL LOG][Proc: 0]p: generate_solver: 0.003 [ms]
[OGL LOG][Proc: 0]p: solve: 3462.99 [ms]
[OGL LOG][Proc: 0]p: copy_x_back: 5.016 [ms]
[OGL LOG][lduLduBase.H:330] 
Statistics:
	Time per iteration: 1451 [mu s]
	Time per residual norm calculation: 345.000000 [mu s]
	Time per iteration and DOF: 0.053741 [ns]
	Retrieve results bandwidth 2.691000 [GByte/s]
[OGL LOG][Proc: 0]p: solve_multi_gpu: 3615.11 [ms]
nonehipGKOCG:  Solving for p, Initial residual = 0.873382, Final residual = 7.58399e-05, No Iterations 2386
[INFO] SolveP: 3670.45 [ms]
time step continuity errors : sum local = 8.33213e-09, global = 1.10824e-21, cumulative = 8.50437e-21
[INFO] ContinuityError: 30.463 [ms]
[INFO] CorrectBoundary: 0.664 [ms]
[INFO] PISOStep: 4106.4 [ms]
[INFO] TimeStep: 10341.1 [ms]
ExecutionTime = 58.93 s  ClockTime = 49 s

Time = 0.000996

Courant Number mean: 0.0301232 max: 0.478357
[INFO] MatrixAssemblyU: 214.533 [ms]
DILUPBiCGStab:  Solving for Ux, Initial residual = 0.0271227, Final residual = 0.00227271, No Iterations 5
DILUPBiCGStab:  Solving for Uy, Initial residual = 0.112074, Final residual = 0.00907356, No Iterations 5
DILUPBiCGStab:  Solving for Uz, Initial residual = 0.589021, Final residual = 0.0271157, No Iterations 5
[INFO] MomentumPredictor: 1764.19 [ms]
[INFO] MatrixAssemblyPI: 242.851 [ms]
[INFO] AdjustPhi: 12.408 [ms]
[INFO] ConstrainPressure: 0.005 [ms]
[INFO] MatrixAssemblyPII: 71.145 [ms]
[OGL LOG][Proc: 0]: global_index_init: 0.035 [ms]
[OGL LOG][Proc: 0]p_local_coeffs: call_update: 0 [ms]
[OGL LOG][Proc: 0]p_non_local_coeffs: call_update: 0 [ms]
[OGL LOG][Proc: 0]p: update_local_matrix_data: 56.732 [ms]
[OGL LOG][Proc: 0]p: update_non_local_matrix_data: 0.162 [ms]
[OGL LOG][Proc: 0]p: regenerate_distributed_matrix: 123.261 [ms]
[OGL LOG][Proc: 0]p_matrix: call_update: 124.538 [ms]
[OGL LOG][Proc: 0]p_rhs: call_update: 16.465 [ms]
[OGL LOG][Proc: 0]p: init_precond: 0.062 [ms]
[OGL LOG][StoppingCriterion.H:237] Creating stopping criterion with minIter 1431 frequency 15
[OGL LOG][Proc: 0]p: generate_solver: 0.004 [ms]
[OGL LOG][Proc: 0]p: solve: 3518.47 [ms]
[OGL LOG][Proc: 0]p: copy_x_back: 5.813 [ms]
[OGL LOG][lduLduBase.H:330] 
Statistics:
	Time per iteration: 1474 [mu s]
	Time per residual norm calculation: 342.000000 [mu s]
	Time per iteration and DOF: 0.054593 [ns]
	Retrieve results bandwidth 2.322000 [GByte/s]
[OGL LOG][Proc: 0]p: solve_multi_gpu: 3668.72 [ms]
nonehipGKOCG:  Solving for p, Initial residual = 0.889387, Final residual = 7.28771e-05, No Iterations 2386
[INFO] SolveP: 3735.05 [ms]
time step continuity errors : sum local = 8.29301e-09, global = 1.88353e-21, cumulative = 1.03879e-20
[INFO] ContinuityError: 32.512 [ms]
[INFO] CorrectBoundary: 0.627 [ms]
[INFO] PISOStep: 4175.65 [ms]
[INFO] MatrixAssemblyPI: 235.279 [ms]
[INFO] AdjustPhi: 13.898 [ms]
[INFO] ConstrainPressure: 0.004 [ms]
[INFO] MatrixAssemblyPII: 71.453 [ms]
[OGL LOG][Proc: 0]: global_index_init: 0.039 [ms]
[OGL LOG][Proc: 0]p_local_coeffs: call_update: 0 [ms]
[OGL LOG][Proc: 0]p_non_local_coeffs: call_update: 0 [ms]
[OGL LOG][Proc: 0]p: update_local_matrix_data: 52.659 [ms]
[OGL LOG][Proc: 0]p: update_non_local_matrix_data: 0.26 [ms]
[OGL LOG][Proc: 0]p: regenerate_distributed_matrix: 118.611 [ms]
[OGL LOG][Proc: 0]p_matrix: call_update: 119.924 [ms]
[OGL LOG][Proc: 0]p_rhs: call_update: 17.577 [ms]
[OGL LOG][Proc: 0]p: init_precond: 0.057 [ms]
[OGL LOG][StoppingCriterion.H:237] Creating stopping criterion with minIter 1431 frequency 15
[OGL LOG][Proc: 0]p: generate_solver: 0.004 [ms]
[OGL LOG][Proc: 0]p: solve: 3482.49 [ms]
[OGL LOG][Proc: 0]p: copy_x_back: 4.345 [ms]
[OGL LOG][lduLduBase.H:330] 
Statistics:
	Time per iteration: 1468 [mu s]
	Time per residual norm calculation: 336.000000 [mu s]
	Time per iteration and DOF: 0.054370 [ns]
	Retrieve results bandwidth 3.107000 [GByte/s]
[OGL LOG][Proc: 0]p: solve_multi_gpu: 3627.36 [ms]
nonehipGKOCG:  Solving for p, Initial residual = 0.826279, Final residual = 9.7583e-05, No Iterations 2371
[INFO] SolveP: 3690.32 [ms]
time step continuity errors : sum local = 1.12713e-08, global = -4.36523e-23, cumulative = 1.03443e-20
[INFO] ContinuityError: 28.97 [ms]
[INFO] CorrectBoundary: 0.544 [ms]
[INFO] PISOStep: 4123.53 [ms]
[INFO] TimeStep: 10306.8 [ms]
ExecutionTime = 71.94 s  ClockTime = 59 s

Time = 0.001162

Courant Number mean: 0.0325867 max: 0.512236
[INFO] MatrixAssemblyU: 210.677 [ms]
DILUPBiCGStab:  Solving for Ux, Initial residual = 0.0246054, Final residual = 0.00211867, No Iterations 5
DILUPBiCGStab:  Solving for Uy, Initial residual = 0.0986035, Final residual = 0.00833202, No Iterations 5
DILUPBiCGStab:  Solving for Uz, Initial residual = 0.562009, Final residual = 0.0239369, No Iterations 5
[INFO] MomentumPredictor: 1778.41 [ms]
[INFO] MatrixAssemblyPI: 241.733 [ms]
[INFO] AdjustPhi: 15.551 [ms]
[INFO] ConstrainPressure: 0.005 [ms]
[INFO] MatrixAssemblyPII: 70.992 [ms]
[OGL LOG][Proc: 0]: global_index_init: 0.415 [ms]
[OGL LOG][Proc: 0]p_local_coeffs: call_update: 0 [ms]
[OGL LOG][Proc: 0]p_non_local_coeffs: call_update: 0 [ms]
[OGL LOG][Proc: 0]p: update_local_matrix_data: 49.574 [ms]
[OGL LOG][Proc: 0]p: update_non_local_matrix_data: 0.252 [ms]
[OGL LOG][Proc: 0]p: regenerate_distributed_matrix: 117.748 [ms]
[OGL LOG][Proc: 0]p_matrix: call_update: 119.023 [ms]
[OGL LOG][Proc: 0]p_rhs: call_update: 14.023 [ms]
[OGL LOG][Proc: 0]p: init_precond: 0.067 [ms]
[OGL LOG][StoppingCriterion.H:237] Creating stopping criterion with minIter 1422 frequency 15
[OGL LOG][Proc: 0]p: generate_solver: 0.004 [ms]
[OGL LOG][Proc: 0]p: solve: 3202.7 [ms]
[OGL LOG][Proc: 0]p: copy_x_back: 5.157 [ms]
[OGL LOG][lduLduBase.H:330] 
Statistics:
	Time per iteration: 1461 [mu s]
	Time per residual norm calculation: 346.000000 [mu s]
	Time per iteration and DOF: 0.054111 [ns]
	Retrieve results bandwidth 2.617000 [GByte/s]
[OGL LOG][Proc: 0]p: solve_multi_gpu: 3354.78 [ms]
nonehipGKOCG:  Solving for p, Initial residual = 0.907335, Final residual = 9.25873e-05, No Iterations 2191
[INFO] SolveP: 3415.55 [ms]
time step continuity errors : sum local = 1.0291e-08, global = 1.3438e-21, cumulative = 1.16881e-20
[INFO] ContinuityError: 29.278 [ms]
[INFO] CorrectBoundary: 0.701 [ms]
[INFO] PISOStep: 3855.95 [ms]
[INFO] MatrixAssemblyPI: 235.556 [ms]
[INFO] AdjustPhi: 14.086 [ms]
[INFO] ConstrainPressure: 0.005 [ms]
[INFO] MatrixAssemblyPII: 71.305 [ms]
[OGL LOG][Proc: 0]: global_index_init: 0.04 [ms]
[OGL LOG][Proc: 0]p_local_coeffs: call_update: 0 [ms]
[OGL LOG][Proc: 0]p_non_local_coeffs: call_update: 0 [ms]
[OGL LOG][Proc: 0]p: update_local_matrix_data: 60.739 [ms]
[OGL LOG][Proc: 0]p: update_non_local_matrix_data: 0.173 [ms]
[OGL LOG][Proc: 0]p: regenerate_distributed_matrix: 118.959 [ms]
[OGL LOG][Proc: 0]p_matrix: call_update: 120.191 [ms]
[OGL LOG][Proc: 0]p_rhs: call_update: 17.955 [ms]
[OGL LOG][Proc: 0]p: init_precond: 0.057 [ms]
[OGL LOG][StoppingCriterion.H:237] Creating stopping criterion with minIter 1314 frequency 14
[OGL LOG][Proc: 0]p: generate_solver: 0.004 [ms]
[OGL LOG][Proc: 0]p: solve: 3302.24 [ms]
[OGL LOG][Proc: 0]p: copy_x_back: 5.228 [ms]
[OGL LOG][lduLduBase.H:330] 
Statistics:
	Time per iteration: 1437 [mu s]
	Time per residual norm calculation: 377.000000 [mu s]
	Time per iteration and DOF: 0.053222 [ns]
	Retrieve results bandwidth 2.582000 [GByte/s]
[OGL LOG][Proc: 0]p: solve_multi_gpu: 3456.43 [ms]
nonehipGKOCG:  Solving for p, Initial residual = 0.862355, Final residual = 8.08881e-05, No Iterations 2297
[INFO] SolveP: 3526.36 [ms]
time step continuity errors : sum local = 8.89284e-09, global = 8.11737e-22, cumulative = 1.24998e-20
[INFO] ContinuityError: 31.383 [ms]
[INFO] CorrectBoundary: 0.755 [ms]
[INFO] PISOStep: 3960.59 [ms]
[INFO] TimeStep: 9834.16 [ms]
ExecutionTime = 84.3 s  ClockTime = 69 s

Time = 0.001328

Courant Number mean: 0.0346583 max: 0.48128
[INFO] MatrixAssemblyU: 213.51 [ms]
DILUPBiCGStab:  Solving for Ux, Initial residual = 0.0221944, Final residual = 0.00198922, No Iterations 5
DILUPBiCGStab:  Solving for Uy, Initial residual = 0.0873553, Final residual = 0.00700943, No Iterations 5
DILUPBiCGStab:  Solving for Uz, Initial residual = 0.521244, Final residual = 0.0221859, No Iterations 5
[INFO] MomentumPredictor: 1762.74 [ms]
[INFO] MatrixAssemblyPI: 241.657 [ms]
[INFO] AdjustPhi: 13.006 [ms]
[INFO] ConstrainPressure: 0.004 [ms]
[INFO] MatrixAssemblyPII: 71.017 [ms]
[OGL LOG][Proc: 0]: global_index_init: 0.081 [ms]
[OGL LOG][Proc: 0]p_local_coeffs: call_update: 0 [ms]
[OGL LOG][Proc: 0]p_non_local_coeffs: call_update: 0 [ms]
[OGL LOG][Proc: 0]p: update_local_matrix_data: 59.161 [ms]
[OGL LOG][Proc: 0]p: update_non_local_matrix_data: 0.189 [ms]
[OGL LOG][Proc: 0]p: regenerate_distributed_matrix: 116.334 [ms]
[OGL LOG][Proc: 0]p_matrix: call_update: 117.595 [ms]
[OGL LOG][Proc: 0]p_rhs: call_update: 16.996 [ms]
[OGL LOG][Proc: 0]p: init_precond: 0.056 [ms]
[OGL LOG][StoppingCriterion.H:237] Creating stopping criterion with minIter 1378 frequency 17
[OGL LOG][Proc: 0]p: generate_solver: 0.004 [ms]
[OGL LOG][Proc: 0]p: solve: 3345.96 [ms]
[OGL LOG][Proc: 0]p: copy_x_back: 5.507 [ms]
[OGL LOG][lduLduBase.H:330] 
Statistics:
	Time per iteration: 1446 [mu s]
	Time per residual norm calculation: 338.000000 [mu s]
	Time per iteration and DOF: 0.053556 [ns]
	Retrieve results bandwidth 2.451000 [GByte/s]
[OGL LOG][Proc: 0]p: solve_multi_gpu: 3490.85 [ms]
nonehipGKOCG:  Solving for p, Initial residual = 0.885807, Final residual = 9.16374e-05, No Iterations 2313
[INFO] SolveP: 3558.55 [ms]
time step continuity errors : sum local = 1.03575e-08, global = -5.54706e-22, cumulative = 1.19451e-20
[INFO] ContinuityError: 29.393 [ms]
[INFO] CorrectBoundary: 0.857 [ms]
[INFO] PISOStep: 3997.38 [ms]
[INFO] MatrixAssemblyPI: 234.402 [ms]
[INFO] AdjustPhi: 13.84 [ms]
[INFO] ConstrainPressure: 0.005 [ms]
[INFO] MatrixAssemblyPII: 71.228 [ms]
[OGL LOG][Proc: 0]: global_index_init: 0.11 [ms]
[OGL LOG][Proc: 0]p_local_coeffs: call_update: 0 [ms]
[OGL LOG][Proc: 0]p_non_local_coeffs: call_update: 0 [ms]
[OGL LOG][Proc: 0]p: update_local_matrix_data: 53.439 [ms]
[OGL LOG][Proc: 0]p: update_non_local_matrix_data: 0.174 [ms]
[OGL LOG][Proc: 0]p: regenerate_distributed_matrix: 126.481 [ms]
[OGL LOG][Proc: 0]p_matrix: call_update: 127.752 [ms]
[OGL LOG][Proc: 0]p_rhs: call_update: 15.026 [ms]
[OGL LOG][Proc: 0]p: init_precond: 0.057 [ms]
[OGL LOG][StoppingCriterion.H:237] Creating stopping criterion with minIter 1387 frequency 15
[OGL LOG][Proc: 0]p: generate_solver: 0.004 [ms]
[OGL LOG][Proc: 0]p: solve: 3369.23 [ms]
[OGL LOG][Proc: 0]p: copy_x_back: 5.41 [ms]
[OGL LOG][lduLduBase.H:330] 
Statistics:
	Time per iteration: 1457 [mu s]
	Time per residual norm calculation: 367.000000 [mu s]
	Time per iteration and DOF: 0.053963 [ns]
	Retrieve results bandwidth 2.495000 [GByte/s]
[OGL LOG][Proc: 0]p: solve_multi_gpu: 3524.12 [ms]
nonehipGKOCG:  Solving for p, Initial residual = 0.820072, Final residual = 8.81735e-05, No Iterations 2311
[INFO] SolveP: 3586.13 [ms]
time step continuity errors : sum local = 1.01016e-08, global = 8.99926e-22, cumulative = 1.2845e-20
[INFO] ContinuityError: 29.573 [ms]
[INFO] CorrectBoundary: 0.7 [ms]
[INFO] PISOStep: 4018.47 [ms]
[INFO] TimeStep: 10020.9 [ms]
ExecutionTime = 96.96 s  ClockTime = 79 s

Time = 0.001494

Courant Number mean: 0.0365913 max: 0.518421
[INFO] MatrixAssemblyU: 212.445 [ms]
DILUPBiCGStab:  Solving for Ux, Initial residual = 0.0206218, Final residual = 0.00185736, No Iterations 5
DILUPBiCGStab:  Solving for Uy, Initial residual = 0.0822824, Final residual = 0.00660574, No Iterations 5
DILUPBiCGStab:  Solving for Uz, Initial residual = 0.515572, Final residual = 0.0203871, No Iterations 5
[INFO] MomentumPredictor: 1768.51 [ms]
[INFO] MatrixAssemblyPI: 241.515 [ms]
[INFO] AdjustPhi: 13.058 [ms]
[INFO] ConstrainPressure: 0.004 [ms]
[INFO] MatrixAssemblyPII: 71.047 [ms]
[OGL LOG][Proc: 0]: global_index_init: 0.057 [ms]
[OGL LOG][Proc: 0]p_local_coeffs: call_update: 0 [ms]
[OGL LOG][Proc: 0]p_non_local_coeffs: call_update: 0 [ms]
[OGL LOG][Proc: 0]p: update_local_matrix_data: 43.112 [ms]
[OGL LOG][Proc: 0]p: update_non_local_matrix_data: 0.289 [ms]
[OGL LOG][Proc: 0]p: regenerate_distributed_matrix: 120.111 [ms]
[OGL LOG][Proc: 0]p_matrix: call_update: 121.376 [ms]
[OGL LOG][Proc: 0]p_rhs: call_update: 11.143 [ms]
[OGL LOG][Proc: 0]p: init_precond: 0.066 [ms]
[OGL LOG][StoppingCriterion.H:237] Creating stopping criterion with minIter 1386 frequency 17
[OGL LOG][Proc: 0]p: generate_solver: 0.004 [ms]
[OGL LOG][Proc: 0]p: solve: 3050.88 [ms]
[OGL LOG][Proc: 0]p: copy_x_back: 5.074 [ms]
[OGL LOG][lduLduBase.H:330] 
Statistics:
	Time per iteration: 1458 [mu s]
	Time per residual norm calculation: 351.000000 [mu s]
	Time per iteration and DOF: 0.054000 [ns]
	Retrieve results bandwidth 2.660000 [GByte/s]
[OGL LOG][Proc: 0]p: solve_multi_gpu: 3200.7 [ms]
nonehipGKOCG:  Solving for p, Initial residual = 0.903273, Final residual = 9.62099e-05, No Iterations 2092
[INFO] SolveP: 3253.15 [ms]
time step continuity errors : sum local = 1.06543e-08, global = -1.92202e-22, cumulative = 1.26528e-20
[INFO] ContinuityError: 30.518 [ms]
[INFO] CorrectBoundary: 0.66 [ms]
[INFO] PISOStep: 3695.35 [ms]
[INFO] MatrixAssemblyPI: 237.053 [ms]
[INFO] AdjustPhi: 15.697 [ms]
[INFO] ConstrainPressure: 0.004 [ms]
[INFO] MatrixAssemblyPII: 71.345 [ms]
[OGL LOG][Proc: 0]: global_index_init: 0.039 [ms]
[OGL LOG][Proc: 0]p_local_coeffs: call_update: 0 [ms]
[OGL LOG][Proc: 0]p_non_local_coeffs: call_update: 0 [ms]
[OGL LOG][Proc: 0]p: update_local_matrix_data: 56.182 [ms]
[OGL LOG][Proc: 0]p: update_non_local_matrix_data: 0.227 [ms]
[OGL LOG][Proc: 0]p: regenerate_distributed_matrix: 123.924 [ms]
[OGL LOG][Proc: 0]p_matrix: call_update: 125.298 [ms]
[OGL LOG][Proc: 0]p_rhs: call_update: 7.189 [ms]
[OGL LOG][Proc: 0]p: init_precond: 0.069 [ms]
[OGL LOG][StoppingCriterion.H:237] Creating stopping criterion with minIter 1255 frequency 14
[OGL LOG][Proc: 0]p: generate_solver: 0.004 [ms]
[OGL LOG][Proc: 0]p: solve: 3025.58 [ms]
[OGL LOG][Proc: 0]p: copy_x_back: 5.548 [ms]
[OGL LOG][lduLduBase.H:330] 
Statistics:
	Time per iteration: 1449 [mu s]
	Time per residual norm calculation: 360.000000 [mu s]
	Time per iteration and DOF: 0.053667 [ns]
	Retrieve results bandwidth 2.433000 [GByte/s]
[OGL LOG][Proc: 0]p: solve_multi_gpu: 3165.4 [ms]
nonehipGKOCG:  Solving for p, Initial residual = 0.853749, Final residual = 9.20034e-05, No Iterations 2087
[INFO] SolveP: 3230.33 [ms]
time step continuity errors : sum local = 1.00898e-08, global = 9.77713e-22, cumulative = 1.36305e-20
[INFO] ContinuityError: 29.875 [ms]
[INFO] CorrectBoundary: 0.912 [ms]
[INFO] PISOStep: 3666 [ms]
[INFO] TimeStep: 9370.86 [ms]
ExecutionTime = 108.73 s  ClockTime = 88 s

Time = 0.00166

Courant Number mean: 0.0382731 max: 0.483673
[INFO] MatrixAssemblyU: 213.436 [ms]
DILUPBiCGStab:  Solving for Ux, Initial residual = 0.0194308, Final residual = 0.00177018, No Iterations 5
DILUPBiCGStab:  Solving for Uy, Initial residual = 0.0739333, Final residual = 0.00573332, No Iterations 5
DILUPBiCGStab:  Solving for Uz, Initial residual = 0.492289, Final residual = 0.0192824, No Iterations 5
[INFO] MomentumPredictor: 1764.8 [ms]
[INFO] MatrixAssemblyPI: 242.669 [ms]
[INFO] AdjustPhi: 12.069 [ms]
[INFO] ConstrainPressure: 0.004 [ms]
[INFO] MatrixAssemblyPII: 71.061 [ms]
[OGL LOG][Proc: 0]: global_index_init: 0.037 [ms]
[OGL LOG][Proc: 0]p_local_coeffs: call_update: 0 [ms]
[OGL LOG][Proc: 0]p_non_local_coeffs: call_update: 0 [ms]
[OGL LOG][Proc: 0]p: update_local_matrix_data: 44.285 [ms]
[OGL LOG][Proc: 0]p: update_non_local_matrix_data: 0.166 [ms]
[OGL LOG][Proc: 0]p: regenerate_distributed_matrix: 124.094 [ms]
[OGL LOG][Proc: 0]p_matrix: call_update: 125.375 [ms]
[OGL LOG][Proc: 0]p_rhs: call_update: 15.583 [ms]
[OGL LOG][Proc: 0]p: init_precond: 0.055 [ms]
[OGL LOG][StoppingCriterion.H:237] Creating stopping criterion with minIter 1252 frequency 14
[OGL LOG][Proc: 0]p: generate_solver: 0.004 [ms]
[OGL LOG][Proc: 0]p: solve: 3362.39 [ms]
[OGL LOG][Proc: 0]p: copy_x_back: 5.492 [ms]
[OGL LOG][lduLduBase.H:330] 
Statistics:
	Time per iteration: 1454 [mu s]
	Time per residual norm calculation: 338.000000 [mu s]
	Time per iteration and DOF: 0.053852 [ns]
	Retrieve results bandwidth 2.458000 [GByte/s]
[OGL LOG][Proc: 0]p: solve_multi_gpu: 3521.36 [ms]
nonehipGKOCG:  Solving for p, Initial residual = 0.88462, Final residual = 8.72023e-05, No Iterations 2311
[INFO] SolveP: 3574.55 [ms]
time step continuity errors : sum local = 9.9625e-09, global = 4.96988e-22, cumulative = 1.41275e-20
[INFO] ContinuityError: 31.345 [ms]
[INFO] CorrectBoundary: 0.831 [ms]
[INFO] PISOStep: 4013.56 [ms]
[INFO] MatrixAssemblyPI: 234.552 [ms]
[INFO] AdjustPhi: 14.323 [ms]
[INFO] ConstrainPressure: 0.005 [ms]
[INFO] MatrixAssemblyPII: 70.977 [ms]
[OGL LOG][Proc: 0]: global_index_init: 0.047 [ms]
[OGL LOG][Proc: 0]p_local_coeffs: call_update: 0 [ms]
[OGL LOG][Proc: 0]p_non_local_coeffs: call_update: 0 [ms]
[OGL LOG][Proc: 0]p: update_local_matrix_data: 45.456 [ms]
[OGL LOG][Proc: 0]p: update_non_local_matrix_data: 0.2 [ms]
[OGL LOG][Proc: 0]p: regenerate_distributed_matrix: 132.338 [ms]
[OGL LOG][Proc: 0]p_matrix: call_update: 133.569 [ms]
[OGL LOG][Proc: 0]p_rhs: call_update: 7.977 [ms]
[OGL LOG][Proc: 0]p: init_precond: 0.057 [ms]
[OGL LOG][StoppingCriterion.H:237] Creating stopping criterion with minIter 1386 frequency 15
[OGL LOG][Proc: 0]p: generate_solver: 0.005 [ms]
[OGL LOG][Proc: 0]p: solve: 3341.36 [ms]
[OGL LOG][Proc: 0]p: copy_x_back: 5.826 [ms]
[OGL LOG][lduLduBase.H:330] 
Statistics:
	Time per iteration: 1445 [mu s]
	Time per residual norm calculation: 365.000000 [mu s]
	Time per iteration and DOF: 0.053519 [ns]
	Retrieve results bandwidth 2.317000 [GByte/s]
[OGL LOG][Proc: 0]p: solve_multi_gpu: 3492.55 [ms]
nonehipGKOCG:  Solving for p, Initial residual = 0.815822, Final residual = 8.13409e-05, No Iterations 2311
[INFO] SolveP: 3546.56 [ms]
time step continuity errors : sum local = 9.40815e-09, global = -5.97822e-22, cumulative = 1.35297e-20
[INFO] ContinuityError: 29.74 [ms]
[INFO] CorrectBoundary: 0.809 [ms]
[INFO] PISOStep: 3977.75 [ms]
[INFO] TimeStep: 9998.23 [ms]
ExecutionTime = 121.34 s  ClockTime = 98 s

Time = 0.001826

Courant Number mean: 0.0398821 max: 0.525024
[INFO] MatrixAssemblyU: 214.801 [ms]
DILUPBiCGStab:  Solving for Ux, Initial residual = 0.0182452, Final residual = 0.0016475, No Iterations 5
DILUPBiCGStab:  Solving for Uy, Initial residual = 0.0723387, Final residual = 0.00551708, No Iterations 5
DILUPBiCGStab:  Solving for Uz, Initial residual = 0.49432, Final residual = 0.0182892, No Iterations 5
[INFO] MomentumPredictor: 1776.28 [ms]
[INFO] MatrixAssemblyPI: 240.957 [ms]
[INFO] AdjustPhi: 13.425 [ms]
[INFO] ConstrainPressure: 0.005 [ms]
[INFO] MatrixAssemblyPII: 71.095 [ms]
[OGL LOG][Proc: 0]: global_index_init: 0.258 [ms]
[OGL LOG][Proc: 0]p_local_coeffs: call_update: 0 [ms]
[OGL LOG][Proc: 0]p_non_local_coeffs: call_update: 0 [ms]
[OGL LOG][Proc: 0]p: update_local_matrix_data: 40.849 [ms]
[OGL LOG][Proc: 0]p: update_non_local_matrix_data: 0.171 [ms]
[OGL LOG][Proc: 0]p: regenerate_distributed_matrix: 134.026 [ms]
[OGL LOG][Proc: 0]p_matrix: call_update: 135.294 [ms]
[OGL LOG][Proc: 0]p_rhs: call_update: 12.751 [ms]
[OGL LOG][Proc: 0]p: init_precond: 0.06 [ms]
[OGL LOG][StoppingCriterion.H:237] Creating stopping criterion with minIter 1386 frequency 17
[OGL LOG][Proc: 0]p: generate_solver: 0.004 [ms]
[OGL LOG][Proc: 0]p: solve: 3314.17 [ms]
[OGL LOG][Proc: 0]p: copy_x_back: 5.316 [ms]
[OGL LOG][lduLduBase.H:330] 
Statistics:
	Time per iteration: 1443 [mu s]
	Time per residual norm calculation: 339.000000 [mu s]
	Time per iteration and DOF: 0.053444 [ns]
	Retrieve results bandwidth 2.539000 [GByte/s]
[OGL LOG][Proc: 0]p: solve_multi_gpu: 3475.31 [ms]
nonehipGKOCG:  Solving for p, Initial residual = 0.903428, Final residual = 9.61395e-05, No Iterations 2296
[INFO] SolveP: 3525.09 [ms]
time step continuity errors : sum local = 1.09286e-08, global = 8.33398e-23, cumulative = 1.3613e-20
[INFO] ContinuityError: 29.232 [ms]
[INFO] CorrectBoundary: 0.582 [ms]
[INFO] PISOStep: 3962.56 [ms]
[INFO] MatrixAssemblyPI: 234.516 [ms]
[INFO] AdjustPhi: 13.706 [ms]
[INFO] ConstrainPressure: 0.004 [ms]
[INFO] MatrixAssemblyPII: 69.62 [ms]
[OGL LOG][Proc: 0]: global_index_init: 0.101 [ms]
[OGL LOG][Proc: 0]p_local_coeffs: call_update: 0 [ms]
[OGL LOG][Proc: 0]p_non_local_coeffs: call_update: 0 [ms]
[OGL LOG][Proc: 0]p: update_local_matrix_data: 42.661 [ms]
[OGL LOG][Proc: 0]p: update_non_local_matrix_data: 0.198 [ms]
[OGL LOG][Proc: 0]p: regenerate_distributed_matrix: 135.203 [ms]
[OGL LOG][Proc: 0]p_matrix: call_update: 136.415 [ms]
[OGL LOG][Proc: 0]p_rhs: call_update: 13.91 [ms]
[OGL LOG][Proc: 0]p: init_precond: 0.058 [ms]
[OGL LOG][StoppingCriterion.H:237] Creating stopping criterion with minIter 1377 frequency 15
[OGL LOG][Proc: 0]p: generate_solver: 0.005 [ms]
[OGL LOG][Proc: 0]p: solve: 3333.25 [ms]
[OGL LOG][Proc: 0]p: copy_x_back: 5.337 [ms]
[OGL LOG][lduLduBase.H:330] 
Statistics:
	Time per iteration: 1451 [mu s]
	Time per residual norm calculation: 360.000000 [mu s]
	Time per iteration and DOF: 0.053741 [ns]
	Retrieve results bandwidth 2.529000 [GByte/s]
[OGL LOG][Proc: 0]p: solve_multi_gpu: 3497.52 [ms]
nonehipGKOCG:  Solving for p, Initial residual = 0.849032, Final residual = 9.08595e-05, No Iterations 2296
[INFO] SolveP: 3549.39 [ms]
time step continuity errors : sum local = 1.0243e-08, global = -3.94532e-22, cumulative = 1.32185e-20
[INFO] ContinuityError: 30.547 [ms]
[INFO] CorrectBoundary: 1.031 [ms]
[INFO] PISOStep: 3980.09 [ms]
[INFO] TimeStep: 9962.54 [ms]
ExecutionTime = 133.93 s  ClockTime = 108 s

Time = 0.001992

Courant Number mean: 0.0413038 max: 0.486765
[INFO] MatrixAssemblyU: 208.523 [ms]
DILUPBiCGStab:  Solving for Ux, Initial residual = 0.0176536, Final residual = 0.00159438, No Iterations 5
DILUPBiCGStab:  Solving for Uy, Initial residual = 0.0658162, Final residual = 0.00485618, No Iterations 5
DILUPBiCGStab:  Solving for Uz, Initial residual = 0.480263, Final residual = 0.0178381, No Iterations 5
[INFO] MomentumPredictor: 1768.67 [ms]
[INFO] MatrixAssemblyPI: 240.266 [ms]
[INFO] AdjustPhi: 14.474 [ms]
[INFO] ConstrainPressure: 0.005 [ms]
[INFO] MatrixAssemblyPII: 70.781 [ms]
[OGL LOG][Proc: 0]: global_index_init: 0.104 [ms]
[OGL LOG][Proc: 0]p_local_coeffs: call_update: 0 [ms]
[OGL LOG][Proc: 0]p_non_local_coeffs: call_update: 0 [ms]
[OGL LOG][Proc: 0]p: update_local_matrix_data: 43.018 [ms]
[OGL LOG][Proc: 0]p: update_non_local_matrix_data: 0.245 [ms]
[OGL LOG][Proc: 0]p: regenerate_distributed_matrix: 131.976 [ms]
[OGL LOG][Proc: 0]p_matrix: call_update: 133.237 [ms]
[OGL LOG][Proc: 0]p_rhs: call_update: 13.241 [ms]
[OGL LOG][Proc: 0]p: init_precond: 0.068 [ms]
[OGL LOG][StoppingCriterion.H:237] Creating stopping criterion with minIter 1377 frequency 15
[OGL LOG][Proc: 0]p: generate_solver: 0.003 [ms]
[OGL LOG][Proc: 0]p: solve: 3376.46 [ms]
[OGL LOG][Proc: 0]p: copy_x_back: 5.345 [ms]
[OGL LOG][lduLduBase.H:330] 
Statistics:
	Time per iteration: 1461 [mu s]
	Time per residual norm calculation: 356.000000 [mu s]
	Time per iteration and DOF: 0.054111 [ns]
	Retrieve results bandwidth 2.525000 [GByte/s]
[OGL LOG][Proc: 0]p: solve_multi_gpu: 3534.44 [ms]
nonehipGKOCG:  Solving for p, Initial residual = 0.8862, Final residual = 7.97106e-05, No Iterations 2311
[INFO] SolveP: 3586.85 [ms]
time step continuity errors : sum local = 9.41893e-09, global = 1.74408e-22, cumulative = 1.33929e-20
[INFO] ContinuityError: 30.834 [ms]
[INFO] CorrectBoundary: 1.479 [ms]
[INFO] PISOStep: 4025.89 [ms]
[INFO] MatrixAssemblyPI: 235.039 [ms]
[INFO] AdjustPhi: 12.85 [ms]
[INFO] ConstrainPressure: 0.005 [ms]
[INFO] MatrixAssemblyPII: 69.209 [ms]
[OGL LOG][Proc: 0]: global_index_init: 0.05 [ms]
[OGL LOG][Proc: 0]p_local_coeffs: call_update: 0 [ms]
[OGL LOG][Proc: 0]p_non_local_coeffs: call_update: 0 [ms]
[OGL LOG][Proc: 0]p: update_local_matrix_data: 39.576 [ms]
[OGL LOG][Proc: 0]p: update_non_local_matrix_data: 0.175 [ms]
[OGL LOG][Proc: 0]p: regenerate_distributed_matrix: 135.029 [ms]
[OGL LOG][Proc: 0]p_matrix: call_update: 136.283 [ms]
[OGL LOG][Proc: 0]p_rhs: call_update: 12.884 [ms]
[OGL LOG][Proc: 0]p: init_precond: 0.057 [ms]
[OGL LOG][StoppingCriterion.H:237] Creating stopping criterion with minIter 1386 frequency 15
[OGL LOG][Proc: 0]p: generate_solver: 0.004 [ms]
[OGL LOG][Proc: 0]p: solve: 3413.46 [ms]
[OGL LOG][Proc: 0]p: copy_x_back: 5.188 [ms]
[OGL LOG][lduLduBase.H:330] 
Statistics:
	Time per iteration: 1486 [mu s]
	Time per residual norm calculation: 342.000000 [mu s]
	Time per iteration and DOF: 0.055037 [ns]
	Retrieve results bandwidth 2.602000 [GByte/s]
[OGL LOG][Proc: 0]p: solve_multi_gpu: 3578.43 [ms]
nonehipGKOCG:  Solving for p, Initial residual = 0.815937, Final residual = 9.49343e-05, No Iterations 2296
[INFO] SolveP: 3626.84 [ms]
time step continuity errors : sum local = 1.13416e-08, global = 3.60564e-22, cumulative = 1.37535e-20
[INFO] ContinuityError: 31.295 [ms]
[INFO] CorrectBoundary: 1.013 [ms]
[INFO] PISOStep: 4058.68 [ms]
[INFO] TimeStep: 10091.3 [ms]
ExecutionTime = 146.64 s  ClockTime = 119 s

Time = 0.002158

Courant Number mean: 0.0426919 max: 0.532611
[INFO] MatrixAssemblyU: 209.304 [ms]
DILUPBiCGStab:  Solving for Ux, Initial residual = 0.0167149, Final residual = 0.00147951, No Iterations 5
DILUPBiCGStab:  Solving for Uy, Initial residual = 0.0658862, Final residual = 0.00476388, No Iterations 5
DILUPBiCGStab:  Solving for Uz, Initial residual = 0.487466, Final residual = 0.0173776, No Iterations 5
[INFO] MomentumPredictor: 1765.63 [ms]
[INFO] MatrixAssemblyPI: 242.465 [ms]
[INFO] AdjustPhi: 12.174 [ms]
[INFO] ConstrainPressure: 0.005 [ms]
[INFO] MatrixAssemblyPII: 70.953 [ms]
[OGL LOG][Proc: 0]: global_index_init: 0.107 [ms]
[OGL LOG][Proc: 0]p_local_coeffs: call_update: 0 [ms]
[OGL LOG][Proc: 0]p_non_local_coeffs: call_update: 0 [ms]
[OGL LOG][Proc: 0]p: update_local_matrix_data: 42.622 [ms]
[OGL LOG][Proc: 0]p: update_non_local_matrix_data: 0.17 [ms]
[OGL LOG][Proc: 0]p: regenerate_distributed_matrix: 131.891 [ms]
[OGL LOG][Proc: 0]p_matrix: call_update: 133.12 [ms]
[OGL LOG][Proc: 0]p_rhs: call_update: 15.955 [ms]
[OGL LOG][Proc: 0]p: init_precond: 0.059 [ms]
[OGL LOG][StoppingCriterion.H:237] Creating stopping criterion with minIter 1377 frequency 15
[OGL LOG][Proc: 0]p: generate_solver: 0.004 [ms]
[OGL LOG][Proc: 0]p: solve: 3277.32 [ms]
[OGL LOG][Proc: 0]p: copy_x_back: 5.477 [ms]
[OGL LOG][lduLduBase.H:330] 
Statistics:
	Time per iteration: 1446 [mu s]
	Time per residual norm calculation: 368.000000 [mu s]
	Time per iteration and DOF: 0.053556 [ns]
	Retrieve results bandwidth 2.464000 [GByte/s]
[OGL LOG][Proc: 0]p: solve_multi_gpu: 3438.58 [ms]
nonehipGKOCG:  Solving for p, Initial residual = 0.904127, Final residual = 9.969e-05, No Iterations 2266
[INFO] SolveP: 3490.35 [ms]
time step continuity errors : sum local = 1.17879e-08, global = -2.0087e-22, cumulative = 1.35526e-20
[INFO] ContinuityError: 31.63 [ms]
[INFO] CorrectBoundary: 3.611 [ms]
[INFO] PISOStep: 3930.73 [ms]
[INFO] MatrixAssemblyPI: 236.197 [ms]
[INFO] AdjustPhi: 12.185 [ms]
[INFO] ConstrainPressure: 0.004 [ms]
[INFO] MatrixAssemblyPII: 71.259 [ms]
[OGL LOG][Proc: 0]: global_index_init: 0.042 [ms]
[OGL LOG][Proc: 0]p_local_coeffs: call_update: 0 [ms]
[OGL LOG][Proc: 0]p_non_local_coeffs: call_update: 0 [ms]
[OGL LOG][Proc: 0]p: update_local_matrix_data: 44.165 [ms]
[OGL LOG][Proc: 0]p: update_non_local_matrix_data: 0.191 [ms]
[OGL LOG][Proc: 0]p: regenerate_distributed_matrix: 131.884 [ms]
[OGL LOG][Proc: 0]p_matrix: call_update: 133.164 [ms]
[OGL LOG][Proc: 0]p_rhs: call_update: 8.925 [ms]
[OGL LOG][Proc: 0]p: init_precond: 0.057 [ms]
[OGL LOG][StoppingCriterion.H:237] Creating stopping criterion with minIter 1359 frequency 17
[OGL LOG][Proc: 0]p: generate_solver: 0.004 [ms]
[OGL LOG][Proc: 0]p: solve: 3301.3 [ms]
[OGL LOG][Proc: 0]p: copy_x_back: 4.918 [ms]
[OGL LOG][lduLduBase.H:330] 
Statistics:
	Time per iteration: 1437 [mu s]
	Time per residual norm calculation: 340.000000 [mu s]
	Time per iteration and DOF: 0.053222 [ns]
	Retrieve results bandwidth 2.745000 [GByte/s]
[OGL LOG][Proc: 0]p: solve_multi_gpu: 3451.77 [ms]
nonehipGKOCG:  Solving for p, Initial residual = 0.84618, Final residual = 8.72816e-05, No Iterations 2296
[INFO] SolveP: 3505.84 [ms]
time step continuity errors : sum local = 1.02499e-08, global = 8.72073e-22, cumulative = 1.44247e-20
[INFO] ContinuityError: 29.536 [ms]
[INFO] CorrectBoundary: 0.605 [ms]
[INFO] PISOStep: 3937.23 [ms]
[INFO] TimeStep: 9871.7 [ms]
ExecutionTime = 159.1 s  ClockTime = 128 s

Time = 0.002324

Courant Number mean: 0.0439262 max: 0.489817
[INFO] MatrixAssemblyU: 213.84 [ms]
DILUPBiCGStab:  Solving for Ux, Initial residual = 0.0164748, Final residual = 0.00145406, No Iterations 5
DILUPBiCGStab:  Solving for Uy, Initial residual = 0.0606963, Final residual = 0.00423189, No Iterations 5
DILUPBiCGStab:  Solving for Uz, Initial residual = 0.478257, Final residual = 0.0170265, No Iterations 5
[INFO] MomentumPredictor: 1765.64 [ms]
[INFO] MatrixAssemblyPI: 242.319 [ms]
[INFO] AdjustPhi: 12.826 [ms]
[INFO] ConstrainPressure: 0.004 [ms]
[INFO] MatrixAssemblyPII: 71.179 [ms]
[OGL LOG][Proc: 0]: global_index_init: 0.04 [ms]
[OGL LOG][Proc: 0]p_local_coeffs: call_update: 0 [ms]
[OGL LOG][Proc: 0]p_non_local_coeffs: call_update: 0 [ms]
[OGL LOG][Proc: 0]p: update_local_matrix_data: 43.372 [ms]
[OGL LOG][Proc: 0]p: update_non_local_matrix_data: 0.177 [ms]
[OGL LOG][Proc: 0]p: regenerate_distributed_matrix: 142.569 [ms]
[OGL LOG][Proc: 0]p_matrix: call_update: 143.798 [ms]
[OGL LOG][Proc: 0]p_rhs: call_update: 12.744 [ms]
[OGL LOG][Proc: 0]p: init_precond: 0.055 [ms]
[OGL LOG][StoppingCriterion.H:237] Creating stopping criterion with minIter 1377 frequency 15
[OGL LOG][Proc: 0]p: generate_solver: 0.004 [ms]
[OGL LOG][Proc: 0]p: solve: 3326.92 [ms]
[OGL LOG][Proc: 0]p: copy_x_back: 5.116 [ms]
[OGL LOG][lduLduBase.H:330] 
Statistics:
	Time per iteration: 1449 [mu s]
	Time per residual norm calculation: 344.000000 [mu s]
	Time per iteration and DOF: 0.053667 [ns]
	Retrieve results bandwidth 2.638000 [GByte/s]
[OGL LOG][Proc: 0]p: solve_multi_gpu: 3502.46 [ms]
nonehipGKOCG:  Solving for p, Initial residual = 0.888598, Final residual = 9.63933e-05, No Iterations 2296
[INFO] SolveP: 3554.42 [ms]
time step continuity errors : sum local = 1.18621e-08, global = -1.27232e-22, cumulative = 1.42974e-20
[INFO] ContinuityError: 29.619 [ms]
[INFO] CorrectBoundary: 1.592 [ms]
[INFO] PISOStep: 3991.38 [ms]
[INFO] MatrixAssemblyPI: 232.829 [ms]
[INFO] AdjustPhi: 16.485 [ms]
[INFO] ConstrainPressure: 0.005 [ms]
[INFO] MatrixAssemblyPII: 70.794 [ms]
[OGL LOG][Proc: 0]: global_index_init: 0.081 [ms]
[OGL LOG][Proc: 0]p_local_coeffs: call_update: 0 [ms]
[OGL LOG][Proc: 0]p_non_local_coeffs: call_update: 0 [ms]
[OGL LOG][Proc: 0]p: update_local_matrix_data: 42.965 [ms]
[OGL LOG][Proc: 0]p: update_non_local_matrix_data: 0.178 [ms]
[OGL LOG][Proc: 0]p: regenerate_distributed_matrix: 139.669 [ms]
[OGL LOG][Proc: 0]p_matrix: call_update: 140.955 [ms]
[OGL LOG][Proc: 0]p_rhs: call_update: 9.154 [ms]
[OGL LOG][Proc: 0]p: init_precond: 0.061 [ms]
[OGL LOG][StoppingCriterion.H:237] Creating stopping criterion with minIter 1377 frequency 15
[OGL LOG][Proc: 0]p: generate_solver: 0.004 [ms]
[OGL LOG][Proc: 0]p: solve: 3305.52 [ms]
[OGL LOG][Proc: 0]p: copy_x_back: 5.333 [ms]
[OGL LOG][lduLduBase.H:330] 
Statistics:
	Time per iteration: 1439 [mu s]
	Time per residual norm calculation: 367.000000 [mu s]
	Time per iteration and DOF: 0.053296 [ns]
	Retrieve results bandwidth 2.531000 [GByte/s]
[OGL LOG][Proc: 0]p: solve_multi_gpu: 3468.88 [ms]
nonehipGKOCG:  Solving for p, Initial residual = 0.817144, Final residual = 8.96806e-05, No Iterations 2296
[INFO] SolveP: 3520.5 [ms]
time step continuity errors : sum local = 1.11423e-08, global = -8.32454e-24, cumulative = 1.42891e-20
[INFO] ContinuityError: 29.372 [ms]
[INFO] CorrectBoundary: 0.686 [ms]
[INFO] PISOStep: 3953 [ms]
[INFO] TimeStep: 9952.86 [ms]
ExecutionTime = 171.64 s  ClockTime = 138 s

Time = 0.00249

Courant Number mean: 0.0451537 max: 0.541228
[INFO] MatrixAssemblyU: 213.238 [ms]
DILUPBiCGStab:  Solving for Ux, Initial residual = 0.0157224, Final residual = 0.00134398, No Iterations 5
DILUPBiCGStab:  Solving for Uy, Initial residual = 0.0615762, Final residual = 0.0042154, No Iterations 5
DILUPBiCGStab:  Solving for Uz, Initial residual = 0.487725, Final residual = 0.0168134, No Iterations 5
[INFO] MomentumPredictor: 1758.92 [ms]
[INFO] MatrixAssemblyPI: 241.942 [ms]
[INFO] AdjustPhi: 13.505 [ms]
[INFO] ConstrainPressure: 0.023 [ms]
[INFO] MatrixAssemblyPII: 71.036 [ms]
[OGL LOG][Proc: 0]: global_index_init: 0.042 [ms]
[OGL LOG][Proc: 0]p_local_coeffs: call_update: 0 [ms]
[OGL LOG][Proc: 0]p_non_local_coeffs: call_update: 0 [ms]
[OGL LOG][Proc: 0]p: update_local_matrix_data: 41.869 [ms]
[OGL LOG][Proc: 0]p: update_non_local_matrix_data: 0.243 [ms]
[OGL LOG][Proc: 0]p: regenerate_distributed_matrix: 127.598 [ms]
[OGL LOG][Proc: 0]p_matrix: call_update: 128.887 [ms]
[OGL LOG][Proc: 0]p_rhs: call_update: 11.825 [ms]
[OGL LOG][Proc: 0]p: init_precond: 0.063 [ms]
[OGL LOG][StoppingCriterion.H:237] Creating stopping criterion with minIter 1377 frequency 17
[OGL LOG][Proc: 0]p: generate_solver: 0.004 [ms]
[OGL LOG][Proc: 0]p: solve: 3301.21 [ms]
[OGL LOG][Proc: 0]p: copy_x_back: 5.418 [ms]
[OGL LOG][lduLduBase.H:330] 
Statistics:
	Time per iteration: 1437 [mu s]
	Time per residual norm calculation: 363.000000 [mu s]
	Time per iteration and DOF: 0.053222 [ns]
	Retrieve results bandwidth 2.491000 [GByte/s]
[OGL LOG][Proc: 0]p: solve_multi_gpu: 3454.64 [ms]
nonehipGKOCG:  Solving for p, Initial residual = 0.904988, Final residual = 9.22059e-05, No Iterations 2296
[INFO] SolveP: 3505.79 [ms]
time step continuity errors : sum local = 1.1395e-08, global = 1.0061e-21, cumulative = 1.52952e-20
[INFO] ContinuityError: 29.562 [ms]
[INFO] CorrectBoundary: 0.677 [ms]
[INFO] PISOStep: 3947.28 [ms]
[INFO] MatrixAssemblyPI: 237.204 [ms]
[INFO] AdjustPhi: 12.102 [ms]
[INFO] ConstrainPressure: 0.005 [ms]
[INFO] MatrixAssemblyPII: 71.356 [ms]
[OGL LOG][Proc: 0]: global_index_init: 0.037 [ms]
[OGL LOG][Proc: 0]p_local_coeffs: call_update: 0 [ms]
[OGL LOG][Proc: 0]p_non_local_coeffs: call_update: 0 [ms]
[OGL LOG][Proc: 0]p: update_local_matrix_data: 41.648 [ms]
[OGL LOG][Proc: 0]p: update_non_local_matrix_data: 0.171 [ms]
[OGL LOG][Proc: 0]p: regenerate_distributed_matrix: 137.339 [ms]
[OGL LOG][Proc: 0]p_matrix: call_update: 138.665 [ms]
[OGL LOG][Proc: 0]p_rhs: call_update: 15.024 [ms]
[OGL LOG][Proc: 0]p: init_precond: 0.062 [ms]
[OGL LOG][StoppingCriterion.H:237] Creating stopping criterion with minIter 1377 frequency 17
[OGL LOG][Proc: 0]p: generate_solver: 0.004 [ms]
[OGL LOG][Proc: 0]p: solve: 3313.95 [ms]
[OGL LOG][Proc: 0]p: copy_x_back: 5.249 [ms]
[OGL LOG][lduLduBase.H:330] 
Statistics:
	Time per iteration: 1443 [mu s]
	Time per residual norm calculation: 340.000000 [mu s]
	Time per iteration and DOF: 0.053444 [ns]
	Retrieve results bandwidth 2.571000 [GByte/s]
[OGL LOG][Proc: 0]p: solve_multi_gpu: 3481.93 [ms]
nonehipGKOCG:  Solving for p, Initial residual = 0.844017, Final residual = 8.70492e-05, No Iterations 2296
[INFO] SolveP: 3532.2 [ms]
time step continuity errors : sum local = 1.06982e-08, global = 5.35345e-23, cumulative = 1.53487e-20
[INFO] ContinuityError: 31.459 [ms]
[INFO] CorrectBoundary: 0.665 [ms]
[INFO] PISOStep: 3967.08 [ms]
[INFO] TimeStep: 9916.12 [ms]
ExecutionTime = 184.17 s  ClockTime = 148 s

Time = 0.002656

Courant Number mean: 0.0462455 max: 0.492917
[INFO] MatrixAssemblyU: 213.58 [ms]
DILUPBiCGStab:  Solving for Ux, Initial residual = 0.0156962, Final residual = 0.00133871, No Iterations 5
DILUPBiCGStab:  Solving for Uy, Initial residual = 0.0574848, Final residual = 0.00377528, No Iterations 5
DILUPBiCGStab:  Solving for Uz, Initial residual = 0.481469, Final residual = 0.0165165, No Iterations 5
[INFO] MomentumPredictor: 1763.81 [ms]
[INFO] MatrixAssemblyPI: 242.312 [ms]
[INFO] AdjustPhi: 12.687 [ms]
[INFO] ConstrainPressure: 0.004 [ms]
[INFO] MatrixAssemblyPII: 71.142 [ms]
[OGL LOG][Proc: 0]: global_index_init: 0.037 [ms]
[OGL LOG][Proc: 0]p_local_coeffs: call_update: 0 [ms]
[OGL LOG][Proc: 0]p_non_local_coeffs: call_update: 0 [ms]
[OGL LOG][Proc: 0]p: update_local_matrix_data: 45.146 [ms]
[OGL LOG][Proc: 0]p: update_non_local_matrix_data: 0.171 [ms]
[OGL LOG][Proc: 0]p: regenerate_distributed_matrix: 133.95 [ms]
[OGL LOG][Proc: 0]p_matrix: call_update: 135.202 [ms]
[OGL LOG][Proc: 0]p_rhs: call_update: 14.819 [ms]
[OGL LOG][Proc: 0]p: init_precond: 0.061 [ms]
[OGL LOG][StoppingCriterion.H:237] Creating stopping criterion with minIter 1377 frequency 15
[OGL LOG][Proc: 0]p: generate_solver: 0.004 [ms]
[OGL LOG][Proc: 0]p: solve: 3327.81 [ms]
[OGL LOG][Proc: 0]p: copy_x_back: 5.451 [ms]
[OGL LOG][lduLduBase.H:330] 
Statistics:
	Time per iteration: 1449 [mu s]
	Time per residual norm calculation: 342.000000 [mu s]
	Time per iteration and DOF: 0.053667 [ns]
	Retrieve results bandwidth 2.476000 [GByte/s]
[OGL LOG][Proc: 0]p: solve_multi_gpu: 3488.05 [ms]
nonehipGKOCG:  Solving for p, Initial residual = 0.891513, Final residual = 9.5832e-05, No Iterations 2296
[INFO] SolveP: 3542.3 [ms]
time step continuity errors : sum local = 1.23144e-08, global = 5.58817e-22, cumulative = 1.59076e-20
[INFO] ContinuityError: 29.965 [ms]
[INFO] CorrectBoundary: 0.797 [ms]
[INFO] PISOStep: 3980.26 [ms]
[INFO] MatrixAssemblyPI: 235.676 [ms]
[INFO] AdjustPhi: 12.447 [ms]
[INFO] ConstrainPressure: 0.004 [ms]
[INFO] MatrixAssemblyPII: 71.107 [ms]
[OGL LOG][Proc: 0]: global_index_init: 0.039 [ms]
[OGL LOG][Proc: 0]p_local_coeffs: call_update: 0 [ms]
[OGL LOG][Proc: 0]p_non_local_coeffs: call_update: 0 [ms]
[OGL LOG][Proc: 0]p: update_local_matrix_data: 42.139 [ms]
[OGL LOG][Proc: 0]p: update_non_local_matrix_data: 0.171 [ms]
[OGL LOG][Proc: 0]p: regenerate_distributed_matrix: 138.558 [ms]
[OGL LOG][Proc: 0]p_matrix: call_update: 139.797 [ms]
[OGL LOG][Proc: 0]p_rhs: call_update: 11.58 [ms]
[OGL LOG][Proc: 0]p: init_precond: 0.058 [ms]
[OGL LOG][StoppingCriterion.H:237] Creating stopping criterion with minIter 1377 frequency 15
[OGL LOG][Proc: 0]p: generate_solver: 0.004 [ms]
[OGL LOG][Proc: 0]p: solve: 3276.84 [ms]
[OGL LOG][Proc: 0]p: copy_x_back: 4.955 [ms]
[OGL LOG][lduLduBase.H:330] 
Statistics:
	Time per iteration: 1427 [mu s]
	Time per residual norm calculation: 346.000000 [mu s]
	Time per iteration and DOF: 0.052852 [ns]
	Retrieve results bandwidth 2.724000 [GByte/s]
[OGL LOG][Proc: 0]p: solve_multi_gpu: 3438.68 [ms]
nonehipGKOCG:  Solving for p, Initial residual = 0.819135, Final residual = 8.9315e-05, No Iterations 2296
[INFO] SolveP: 3489.88 [ms]
time step continuity errors : sum local = 1.15726e-08, global = -1.68671e-22, cumulative = 1.57389e-20
[INFO] ContinuityError: 29.896 [ms]
[INFO] CorrectBoundary: 0.657 [ms]
[INFO] PISOStep: 3922.03 [ms]
[INFO] TimeStep: 9908.27 [ms]
ExecutionTime = 196.7 s  ClockTime = 158 s

Time = 0.002822

Courant Number mean: 0.0473494 max: 0.551301
[INFO] MatrixAssemblyU: 214.053 [ms]
DILUPBiCGStab:  Solving for Ux, Initial residual = 0.0151172, Final residual = 0.00123586, No Iterations 5
DILUPBiCGStab:  Solving for Uy, Initial residual = 0.0587937, Final residual = 0.00380466, No Iterations 5
DILUPBiCGStab:  Solving for Uz, Initial residual = 0.49202, Final residual = 0.0164528, No Iterations 5
[INFO] MomentumPredictor: 1762.84 [ms]
[INFO] MatrixAssemblyPI: 243.908 [ms]
[INFO] AdjustPhi: 12.1 [ms]
[INFO] ConstrainPressure: 0.005 [ms]
[INFO] MatrixAssemblyPII: 70.808 [ms]
[OGL LOG][Proc: 0]: global_index_init: 0.046 [ms]
[OGL LOG][Proc: 0]p_local_coeffs: call_update: 0 [ms]
[OGL LOG][Proc: 0]p_non_local_coeffs: call_update: 0 [ms]
[OGL LOG][Proc: 0]p: update_local_matrix_data: 40.908 [ms]
[OGL LOG][Proc: 0]p: update_non_local_matrix_data: 0.171 [ms]
[OGL LOG][Proc: 0]p: regenerate_distributed_matrix: 138.083 [ms]
[OGL LOG][Proc: 0]p_matrix: call_update: 139.669 [ms]
[OGL LOG][Proc: 0]p_rhs: call_update: 5.108 [ms]
[OGL LOG][Proc: 0]p: init_precond: 0.056 [ms]
[OGL LOG][StoppingCriterion.H:237] Creating stopping criterion with minIter 1377 frequency 15
[OGL LOG][Proc: 0]p: generate_solver: 0.004 [ms]
[OGL LOG][Proc: 0]p: solve: 3296.66 [ms]
[OGL LOG][Proc: 0]p: copy_x_back: 5.329 [ms]
[OGL LOG][lduLduBase.H:330] 
Statistics:
	Time per iteration: 1435 [mu s]
	Time per residual norm calculation: 354.000000 [mu s]
	Time per iteration and DOF: 0.053148 [ns]
	Retrieve results bandwidth 2.533000 [GByte/s]
[OGL LOG][Proc: 0]p: solve_multi_gpu: 3456.13 [ms]
nonehipGKOCG:  Solving for p, Initial residual = 0.906299, Final residual = 9.31773e-05, No Iterations 2296
[INFO] SolveP: 3506.24 [ms]
time step continuity errors : sum local = 1.20725e-08, global = -1.62814e-21, cumulative = 1.41108e-20
[INFO] ContinuityError: 30.282 [ms]
[INFO] CorrectBoundary: 1.632 [ms]
[INFO] PISOStep: 3945.32 [ms]
[INFO] MatrixAssemblyPI: 235.348 [ms]
[INFO] AdjustPhi: 13.326 [ms]
[INFO] ConstrainPressure: 0.005 [ms]
[INFO] MatrixAssemblyPII: 70.004 [ms]
[OGL LOG][Proc: 0]: global_index_init: 0.036 [ms]
[OGL LOG][Proc: 0]p_local_coeffs: call_update: 0 [ms]
[OGL LOG][Proc: 0]p_non_local_coeffs: call_update: 0 [ms]
[OGL LOG][Proc: 0]p: update_local_matrix_data: 42.894 [ms]
[OGL LOG][Proc: 0]p: update_non_local_matrix_data: 0.166 [ms]
[OGL LOG][Proc: 0]p: regenerate_distributed_matrix: 123.941 [ms]
[OGL LOG][Proc: 0]p_matrix: call_update: 125.224 [ms]
[OGL LOG][Proc: 0]p_rhs: call_update: 17.597 [ms]
[OGL LOG][Proc: 0]p: init_precond: 0.057 [ms]
[OGL LOG][StoppingCriterion.H:237] Creating stopping criterion with minIter 1377 frequency 15
[OGL LOG][Proc: 0]p: generate_solver: 0.004 [ms]
[OGL LOG][Proc: 0]p: solve: 3300.21 [ms]
[OGL LOG][Proc: 0]p: copy_x_back: 5.052 [ms]
[OGL LOG][lduLduBase.H:330] 
Statistics:
	Time per iteration: 1437 [mu s]
	Time per residual norm calculation: 364.000000 [mu s]
	Time per iteration and DOF: 0.053222 [ns]
	Retrieve results bandwidth 2.672000 [GByte/s]
[OGL LOG][Proc: 0]p: solve_multi_gpu: 3453.68 [ms]
nonehipGKOCG:  Solving for p, Initial residual = 0.842353, Final residual = 8.77758e-05, No Iterations 2296
[INFO] SolveP: 3507.18 [ms]
time step continuity errors : sum local = 1.13234e-08, global = 1.19479e-22, cumulative = 1.42302e-20
[INFO] ContinuityError: 33.787 [ms]
[INFO] CorrectBoundary: 0.683 [ms]
[INFO] PISOStep: 3942.31 [ms]
[INFO] TimeStep: 9893.06 [ms]
ExecutionTime = 209.23 s  ClockTime = 168 s

Time = 0.002988

Courant Number mean: 0.0483286 max: 0.496233
[INFO] MatrixAssemblyU: 211.301 [ms]
DILUPBiCGStab:  Solving for Ux, Initial residual = 0.0152254, Final residual = 0.00124278, No Iterations 5
DILUPBiCGStab:  Solving for Uy, Initial residual = 0.0556617, Final residual = 0.0034356, No Iterations 5
DILUPBiCGStab:  Solving for Uz, Initial residual = 0.48806, Final residual = 0.0162157, No Iterations 5
[INFO] MomentumPredictor: 1764.02 [ms]
[INFO] MatrixAssemblyPI: 241.232 [ms]
[INFO] AdjustPhi: 13.862 [ms]
[INFO] ConstrainPressure: 0.004 [ms]
[INFO] MatrixAssemblyPII: 70.866 [ms]
[OGL LOG][Proc: 0]: global_index_init: 0.092 [ms]
[OGL LOG][Proc: 0]p_local_coeffs: call_update: 0 [ms]
[OGL LOG][Proc: 0]p_non_local_coeffs: call_update: 0 [ms]
[OGL LOG][Proc: 0]p: update_local_matrix_data: 41.767 [ms]
[OGL LOG][Proc: 0]p: update_non_local_matrix_data: 0.235 [ms]
[OGL LOG][Proc: 0]p: regenerate_distributed_matrix: 126.65 [ms]
[OGL LOG][Proc: 0]p_matrix: call_update: 127.878 [ms]
[OGL LOG][Proc: 0]p_rhs: call_update: 20.927 [ms]
[OGL LOG][Proc: 0]p: init_precond: 0.059 [ms]
[OGL LOG][StoppingCriterion.H:237] Creating stopping criterion with minIter 1377 frequency 17
[OGL LOG][Proc: 0]p: generate_solver: 0.004 [ms]
[OGL LOG][Proc: 0]p: solve: 3298.96 [ms]
[OGL LOG][Proc: 0]p: copy_x_back: 4.977 [ms]
[OGL LOG][lduLduBase.H:330] 
Statistics:
	Time per iteration: 1436 [mu s]
	Time per residual norm calculation: 346.000000 [mu s]
	Time per iteration and DOF: 0.053185 [ns]
	Retrieve results bandwidth 2.712000 [GByte/s]
[OGL LOG][Proc: 0]p: solve_multi_gpu: 3460.54 [ms]
nonehipGKOCG:  Solving for p, Initial residual = 0.895998, Final residual = 9.64633e-05, No Iterations 2296
[INFO] SolveP: 3511.23 [ms]
time step continuity errors : sum local = 1.29865e-08, global = 1.70009e-21, cumulative = 1.59303e-20
[INFO] ContinuityError: 30.118 [ms]
[INFO] CorrectBoundary: 0.746 [ms]
[INFO] PISOStep: 3949.64 [ms]
[INFO] MatrixAssemblyPI: 235.01 [ms]
[INFO] AdjustPhi: 12.624 [ms]
[INFO] ConstrainPressure: 0.005 [ms]
[INFO] MatrixAssemblyPII: 70.869 [ms]
[OGL LOG][Proc: 0]: global_index_init: 0.041 [ms]
[OGL LOG][Proc: 0]p_local_coeffs: call_update: 0 [ms]
[OGL LOG][Proc: 0]p_non_local_coeffs: call_update: 0 [ms]
[OGL LOG][Proc: 0]p: update_local_matrix_data: 41.722 [ms]
[OGL LOG][Proc: 0]p: update_non_local_matrix_data: 0.179 [ms]
[OGL LOG][Proc: 0]p: regenerate_distributed_matrix: 133.264 [ms]
[OGL LOG][Proc: 0]p_matrix: call_update: 134.538 [ms]
[OGL LOG][Proc: 0]p_rhs: call_update: 9.357 [ms]
[OGL LOG][Proc: 0]p: init_precond: 0.057 [ms]
[OGL LOG][StoppingCriterion.H:237] Creating stopping criterion with minIter 1377 frequency 15
[OGL LOG][Proc: 0]p: generate_solver: 0.004 [ms]
[OGL LOG][Proc: 0]p: solve: 3306.28 [ms]
[OGL LOG][Proc: 0]p: copy_x_back: 5.58 [ms]
[OGL LOG][lduLduBase.H:330] 
Statistics:
	Time per iteration: 1440 [mu s]
	Time per residual norm calculation: 339.000000 [mu s]
	Time per iteration and DOF: 0.053333 [ns]
	Retrieve results bandwidth 2.419000 [GByte/s]
[OGL LOG][Proc: 0]p: solve_multi_gpu: 3463.96 [ms]
nonehipGKOCG:  Solving for p, Initial residual = 0.822295, Final residual = 9.00127e-05, No Iterations 2296
[INFO] SolveP: 3514.44 [ms]
time step continuity errors : sum local = 1.22058e-08, global = 7.70299e-22, cumulative = 1.67006e-20
[INFO] ContinuityError: 30.489 [ms]
[INFO] CorrectBoundary: 2.718 [ms]
[INFO] PISOStep: 3948.28 [ms]
[INFO] TimeStep: 9902.2 [ms]
ExecutionTime = 221.7 s  ClockTime = 178 s

Time = 0.003154

Courant Number mean: 0.0493356 max: 0.562806
[INFO] MatrixAssemblyU: 214.479 [ms]
DILUPBiCGStab:  Solving for Ux, Initial residual = 0.0148197, Final residual = 0.00115057, No Iterations 5
DILUPBiCGStab:  Solving for Uy, Initial residual = 0.0572281, Final residual = 0.00349303, No Iterations 5
DILUPBiCGStab:  Solving for Uz, Initial residual = 0.499129, Final residual = 0.0162464, No Iterations 5
[INFO] MomentumPredictor: 1756.53 [ms]
[INFO] MatrixAssemblyPI: 242.327 [ms]
[INFO] AdjustPhi: 13.252 [ms]
[INFO] ConstrainPressure: 0.004 [ms]
[INFO] MatrixAssemblyPII: 70.705 [ms]
[OGL LOG][Proc: 0]: global_index_init: 0.053 [ms]
[OGL LOG][Proc: 0]p_local_coeffs: call_update: 0 [ms]
[OGL LOG][Proc: 0]p_non_local_coeffs: call_update: 0 [ms]
[OGL LOG][Proc: 0]p: update_local_matrix_data: 41.998 [ms]
[OGL LOG][Proc: 0]p: update_non_local_matrix_data: 0.175 [ms]
[OGL LOG][Proc: 0]p: regenerate_distributed_matrix: 116.542 [ms]
[OGL LOG][Proc: 0]p_matrix: call_update: 117.776 [ms]
[OGL LOG][Proc: 0]p_rhs: call_update: 18.423 [ms]
[OGL LOG][Proc: 0]p: init_precond: 0.063 [ms]
[OGL LOG][StoppingCriterion.H:237] Creating stopping criterion with minIter 1377 frequency 15
[OGL LOG][Proc: 0]p: generate_solver: 0.004 [ms]
[OGL LOG][Proc: 0]p: solve: 3328.58 [ms]
[OGL LOG][Proc: 0]p: copy_x_back: 5.35 [ms]
[OGL LOG][lduLduBase.H:330] 
Statistics:
	Time per iteration: 1449 [mu s]
	Time per residual norm calculation: 350.000000 [mu s]
	Time per iteration and DOF: 0.053667 [ns]
	Retrieve results bandwidth 2.523000 [GByte/s]
[OGL LOG][Proc: 0]p: solve_multi_gpu: 3476.1 [ms]
nonehipGKOCG:  Solving for p, Initial residual = 0.908927, Final residual = 9.55967e-05, No Iterations 2296
[INFO] SolveP: 3528.45 [ms]
time step continuity errors : sum local = 1.30444e-08, global = -1.84427e-23, cumulative = 1.66822e-20
[INFO] ContinuityError: 29.369 [ms]
[INFO] CorrectBoundary: 0.719 [ms]
[INFO] PISOStep: 3966.25 [ms]
[INFO] MatrixAssemblyPI: 234.849 [ms]
[INFO] AdjustPhi: 13.191 [ms]
[INFO] ConstrainPressure: 0.005 [ms]
[INFO] MatrixAssemblyPII: 70.91 [ms]
[OGL LOG][Proc: 0]: global_index_init: 0.079 [ms]
[OGL LOG][Proc: 0]p_local_coeffs: call_update: 0 [ms]
[OGL LOG][Proc: 0]p_non_local_coeffs: call_update: 0 [ms]
[OGL LOG][Proc: 0]p: update_local_matrix_data: 41.338 [ms]
[OGL LOG][Proc: 0]p: update_non_local_matrix_data: 0.171 [ms]
[OGL LOG][Proc: 0]p: regenerate_distributed_matrix: 117.497 [ms]
[OGL LOG][Proc: 0]p_matrix: call_update: 121.046 [ms]
[OGL LOG][Proc: 0]p_rhs: call_update: 17.08 [ms]
[OGL LOG][Proc: 0]p: init_precond: 0.057 [ms]
[OGL LOG][StoppingCriterion.H:237] Creating stopping criterion with minIter 1377 frequency 15
[OGL LOG][Proc: 0]p: generate_solver: 0.004 [ms]
[OGL LOG][Proc: 0]p: solve: 3315.02 [ms]
[OGL LOG][Proc: 0]p: copy_x_back: 5.542 [ms]
[OGL LOG][lduLduBase.H:330] 
Statistics:
	Time per iteration: 1443 [mu s]
	Time per residual norm calculation: 340.000000 [mu s]
	Time per iteration and DOF: 0.053444 [ns]
	Retrieve results bandwidth 2.435000 [GByte/s]
[OGL LOG][Proc: 0]p: solve_multi_gpu: 3467.1 [ms]
nonehipGKOCG:  Solving for p, Initial residual = 0.842038, Final residual = 8.98838e-05, No Iterations 2296
[INFO] SolveP: 3517.45 [ms]
time step continuity errors : sum local = 1.22247e-08, global = 7.25994e-22, cumulative = 1.74082e-20
[INFO] ContinuityError: 30.285 [ms]
[INFO] CorrectBoundary: 0.646 [ms]
[INFO] PISOStep: 3948.45 [ms]
[INFO] TimeStep: 9914.74 [ms]
ExecutionTime = 234.21 s  ClockTime = 188 s

Time = 0.00332

Courant Number mean: 0.0502223 max: 0.499823
[INFO] MatrixAssemblyU: 214.604 [ms]
DILUPBiCGStab:  Solving for Ux, Initial residual = 0.0150262, Final residual = 0.00116336, No Iterations 5
DILUPBiCGStab:  Solving for Uy, Initial residual = 0.0548716, Final residual = 0.00318311, No Iterations 5
DILUPBiCGStab:  Solving for Uz, Initial residual = 0.497089, Final residual = 0.0160844, No Iterations 5
[INFO] MomentumPredictor: 1767.82 [ms]
[INFO] MatrixAssemblyPI: 242.829 [ms]
[INFO] AdjustPhi: 12.074 [ms]
[INFO] ConstrainPressure: 0.004 [ms]
[INFO] MatrixAssemblyPII: 70.971 [ms]
[OGL LOG][Proc: 0]: global_index_init: 0.041 [ms]
[OGL LOG][Proc: 0]p_local_coeffs: call_update: 0 [ms]
[OGL LOG][Proc: 0]p_non_local_coeffs: call_update: 0 [ms]
[OGL LOG][Proc: 0]p: update_local_matrix_data: 42.086 [ms]
[OGL LOG][Proc: 0]p: update_non_local_matrix_data: 0.17 [ms]
[OGL LOG][Proc: 0]p: regenerate_distributed_matrix: 119.187 [ms]
[OGL LOG][Proc: 0]p_matrix: call_update: 120.488 [ms]
[OGL LOG][Proc: 0]p_rhs: call_update: 24.561 [ms]
[OGL LOG][Proc: 0]p: init_precond: 0.06 [ms]
[OGL LOG][StoppingCriterion.H:237] Creating stopping criterion with minIter 1377 frequency 15
[OGL LOG][Proc: 0]p: generate_solver: 0.005 [ms]
[OGL LOG][Proc: 0]p: solve: 3319.61 [ms]
[OGL LOG][Proc: 0]p: copy_x_back: 5.094 [ms]
[OGL LOG][lduLduBase.H:330] 
Statistics:
	Time per iteration: 1445 [mu s]
	Time per residual norm calculation: 338.000000 [mu s]
	Time per iteration and DOF: 0.053519 [ns]
	Retrieve results bandwidth 2.650000 [GByte/s]
[OGL LOG][Proc: 0]p: solve_multi_gpu: 3476.15 [ms]
nonehipGKOCG:  Solving for p, Initial residual = 0.901501, Final residual = 9.24242e-05, No Iterations 2296
[INFO] SolveP: 3528.02 [ms]
time step continuity errors : sum local = 1.30947e-08, global = 3.30875e-22, cumulative = 1.7739e-20
[INFO] ContinuityError: 28.841 [ms]
[INFO] CorrectBoundary: 0.69 [ms]
[INFO] PISOStep: 3965.75 [ms]
[INFO] MatrixAssemblyPI: 234.776 [ms]
[INFO] AdjustPhi: 13.091 [ms]
[INFO] ConstrainPressure: 0.005 [ms]
[INFO] MatrixAssemblyPII: 71.153 [ms]
[OGL LOG][Proc: 0]: global_index_init: 0.041 [ms]
[OGL LOG][Proc: 0]p_local_coeffs: call_update: 0 [ms]
[OGL LOG][Proc: 0]p_non_local_coeffs: call_update: 0 [ms]
[OGL LOG][Proc: 0]p: update_local_matrix_data: 42.569 [ms]
[OGL LOG][Proc: 0]p: update_non_local_matrix_data: 0.18 [ms]
[OGL LOG][Proc: 0]p: regenerate_distributed_matrix: 122.134 [ms]
[OGL LOG][Proc: 0]p_matrix: call_update: 123.359 [ms]
[OGL LOG][Proc: 0]p_rhs: call_update: 18.096 [ms]
[OGL LOG][Proc: 0]p: init_precond: 0.055 [ms]
[OGL LOG][StoppingCriterion.H:237] Creating stopping criterion with minIter 1377 frequency 15
[OGL LOG][Proc: 0]p: generate_solver: 0.004 [ms]
[OGL LOG][Proc: 0]p: solve: 3373.79 [ms]
[OGL LOG][Proc: 0]p: copy_x_back: 5.639 [ms]
[OGL LOG][lduLduBase.H:330] 
Statistics:
	Time per iteration: 1469 [mu s]
	Time per residual norm calculation: 335.000000 [mu s]
	Time per iteration and DOF: 0.054407 [ns]
	Retrieve results bandwidth 2.394000 [GByte/s]
[OGL LOG][Proc: 0]p: solve_multi_gpu: 3526.92 [ms]
nonehipGKOCG:  Solving for p, Initial residual = 0.82657, Final residual = 8.91433e-05, No Iterations 2296
[INFO] SolveP: 3578.27 [ms]
time step continuity errors : sum local = 1.27096e-08, global = 1.44822e-21, cumulative = 1.91873e-20
[INFO] ContinuityError: 30.616 [ms]
[INFO] CorrectBoundary: 1 [ms]
[INFO] PISOStep: 4010.46 [ms]
[INFO] TimeStep: 9987.08 [ms]
ExecutionTime = 246.82 s  ClockTime = 198 s

End

Finalising parallel run
