/*---------------------------------------------------------------------------*\
| =========                 |                                                 |
| \\      /  F ield         | OpenFOAM: The Open Source CFD Toolbox           |
|  \\    /   O peration     | Version:  2306                                  |
|   \\  /    A nd           | Website:  www.openfoam.com                      |
|    \\/     M anipulation  |                                                 |
\*---------------------------------------------------------------------------*/
Build  : a6e826bd55-20230630 OPENFOAM=2306 version=v2306
Arch   : "LSB;label=32;scalar=64"
Exec   : simpleFoam -parallel -case /home/greole/data/code/exasim_project/micro_benchmarks/WindsorBody/workspace/a8b035ddffebf26aa9e9a628f9f21a35/case
Date   : Aug 27 2023
Time   : 16:26:41
Host   : nla-gpu2.ianm.kit.edu
PID    : 3071239
I/O    : uncollated
Case   : /home/greole/data/code/exasim_project/micro_benchmarks/WindsorBody/workspace/a8b035ddffebf26aa9e9a628f9f21a35/case
nProcs : 32
Hosts  :
(
    (nla-gpu2.ianm.kit.edu 32)
)
Pstream initialized with:
    floatTransfer      : false
    nProcsSimpleSum    : 0
    nonBlockingExchange: 0 (tuning: 0)
    exchange algorithm : -1
    commsType          : nonBlocking
    polling iterations : 0
trapFpe: Floating point exception trapping enabled (FOAM_SIGFPE).
fileModificationChecking : Monitoring run-time modified files using timeStampMaster (fileModificationSkew 5, maxFileModificationPolls 20)
allowSystemOperations : Allowing user-supplied system call operations

// * * * * * * * * * * * * * * * * * * * * * * * * * * * * * * * * * * * * * //
Create time

--> FOAM Warning : 
    From void* Foam::dlLibraryTable::openLibrary(const Foam::fileName&, bool)
    in file db/dynamicLibrary/dlLibraryTable/dlLibraryTable.C at line 188
    Could not load "libpetscFoam.so"
libpetscFoam.so: cannot open shared object file: No such file or directory
Create mesh for time = 0


SIMPLE: convergence criteria
    field p	 tolerance 1e-08
    field U	 tolerance 1e-08
    field k	 tolerance 1e-08
    field omega	 tolerance 1e-08
    field nuTilda	 tolerance 1e-08

Reading field p

Reading field U

Reading/calculating face flux field phi

Selecting incompressible transport model Newtonian
Selecting turbulence model type RAS
Selecting RAS turbulence model SpalartAllmaras
Selecting patchDistMethod meshWave
ft2 term: inactive
RAS
{
    RASModel        SpalartAllmaras;
    turbulence      on;
    printCoeffs     on;
    sigmaNut        0.66666;
    kappa           0.41;
    Cb1             0.1355;
    Cb2             0.622;
    Cw2             0.3;
    Cw3             2;
    Cv1             7.1;
    Cs              0.3;
    ck              0.07000000000000001;
    ft2             false;
    Ct3             1.2;
    Ct4             0.5;
}

No MRF models present

Creating finite volume options from "system/fvOptions"

Selecting finite volume options type velocityDampingConstraint
    Source: velocityDamping
    - selecting all cells
    - selected 12614272 cell(s) with volume 55.65166103217553

Starting time loop

--> FOAM Warning : 
    From bool Foam::functionObjectList::read()
    in file db/functionObjects/functionObjectList/functionObjectList.C at line 1035
    Reading "system/controlDict" at line 2 to 41
    Entry 'lref' is not a dictionary
--> FOAM Warning : 
    From bool Foam::functionObjectList::read()
    in file db/functionObjects/functionObjectList/functionObjectList.C at line 1035
    Reading "system/controlDict" at line 2 to 41
    Entry 'Aref' is not a dictionary
--> FOAM Warning : 
    From bool Foam::functionObjectList::read()
    in file db/functionObjects/functionObjectList/functionObjectList.C at line 1035
    Reading "system/controlDict" at line 2 to 41
    Entry 'yawAngle' is not a dictionary
--> FOAM Warning : 
    From bool Foam::functionObjectList::read()
    in file db/functionObjects/functionObjectList/functionObjectList.C at line 1035
    Reading "system/controlDict" at line 2 to 41
    Entry 'lDomain' is not a dictionary
--> FOAM Warning : 
    From bool Foam::functionObjectList::read()
    in file db/functionObjects/functionObjectList/functionObjectList.C at line 1035
    Reading "system/controlDict" at line 2 to 41
    Entry 'bDomain' is not a dictionary
--> FOAM Warning : 
    From bool Foam::functionObjectList::read()
    in file db/functionObjects/functionObjectList/functionObjectList.C at line 1035
    Reading "system/controlDict" at line 2 to 41
    Entry 'hDomain' is not a dictionary
--> FOAM Warning : 
    From bool Foam::functionObjectList::read()
    in file db/functionObjects/functionObjectList/functionObjectList.C at line 1035
    Reading "system/controlDict" at line 2 to 41
    Entry 'xCenter' is not a dictionary
--> FOAM Warning : 
    From bool Foam::functionObjectList::read()
    in file db/functionObjects/functionObjectList/functionObjectList.C at line 1035
    Reading "system/controlDict" at line 2 to 41
    Entry 'yCenter' is not a dictionary
--> FOAM Warning : 
    From bool Foam::functionObjectList::read()
    in file db/functionObjects/functionObjectList/functionObjectList.C at line 1035
    Reading "system/controlDict" at line 2 to 41
    Entry 'zCenter' is not a dictionary
--> FOAM Warning : 
    From bool Foam::functionObjectList::read()
    in file db/functionObjects/functionObjectList/functionObjectList.C at line 1035
    Reading "system/controlDict" at line 2 to 41
    Entry 'inletPatch' is not a dictionary
--> FOAM Warning : 
    From bool Foam::functionObjectList::read()
    in file db/functionObjects/functionObjectList/functionObjectList.C at line 1035
    Reading "system/controlDict" at line 2 to 41
    Entry 'outletPatch' is not a dictionary
--> FOAM Warning : 
    From bool Foam::functionObjectList::read()
    in file db/functionObjects/functionObjectList/functionObjectList.C at line 1035
    Reading "system/controlDict" at line 2 to 41
    Entry 'wallPatches' is not a dictionary
--> FOAM Warning : 
    From bool Foam::functionObjectList::read()
    in file db/functionObjects/functionObjectList/functionObjectList.C at line 1035
    Reading "system/controlDict" at line 2 to 41
    Entry 'forcesWallPatches' is not a dictionary
--> FOAM Warning : 
    From bool Foam::functionObjectList::read()
    in file db/functionObjects/functionObjectList/functionObjectList.C at line 1035
    Reading "system/controlDict" at line 2 to 41
    Entry 'symmPatches' is not a dictionary
--> FOAM Warning : 
    From bool Foam::functionObjectList::read()
    in file db/functionObjects/functionObjectList/functionObjectList.C at line 1035
    Reading "system/controlDict" at line 2 to 41
    Entry 'Uinf' is not a dictionary
--> FOAM Warning : 
    From bool Foam::functionObjectList::read()
    in file db/functionObjects/functionObjectList/functionObjectList.C at line 1035
    Reading "system/controlDict" at line 2 to 41
    Entry 'UinfMag' is not a dictionary
--> FOAM Warning : 
    From bool Foam::functionObjectList::read()
    in file db/functionObjects/functionObjectList/functionObjectList.C at line 1035
    Reading "system/controlDict" at line 2 to 41
    Entry 'nu' is not a dictionary
--> FOAM Warning : 
    From bool Foam::functionObjectList::read()
    in file db/functionObjects/functionObjectList/functionObjectList.C at line 1035
    Reading "system/controlDict" at line 2 to 41
    Entry 'pref' is not a dictionary
--> FOAM Warning : 
    From bool Foam::functionObjectList::read()
    in file db/functionObjects/functionObjectList/functionObjectList.C at line 1035
    Reading "system/controlDict" at line 2 to 41
    Entry 'viscRatio' is not a dictionary
--> FOAM Warning : 
    From bool Foam::functionObjectList::read()
    in file db/functionObjects/functionObjectList/functionObjectList.C at line 1035
    Reading "system/controlDict" at line 2 to 41
    Entry 'Tu' is not a dictionary
--> FOAM Warning : 
    From bool Foam::functionObjectList::read()
    in file db/functionObjects/functionObjectList/functionObjectList.C at line 1035
    Reading "system/controlDict" at line 2 to 41
    Entry 'LESturbModel' is not a dictionary
--> FOAM Warning : 
    From bool Foam::functionObjectList::read()
    in file db/functionObjects/functionObjectList/functionObjectList.C at line 1035
    Reading "system/controlDict" at line 2 to 41
    Entry 'RASturbModel' is not a dictionary
--> FOAM Warning : 
    From bool Foam::functionObjectList::read()
    in file db/functionObjects/functionObjectList/functionObjectList.C at line 1035
    Reading "system/controlDict" at line 2 to 41
    Entry 'deltaTurb' is not a dictionary
--> FOAM Warning : 
    From bool Foam::functionObjectList::read()
    in file db/functionObjects/functionObjectList/functionObjectList.C at line 1035
    Reading "system/controlDict" at line 2 to 41
    Entry 'dt' is not a dictionary
--> FOAM Warning : 
    From bool Foam::functionObjectList::read()
    in file db/functionObjects/functionObjectList/functionObjectList.C at line 1035
    Reading "system/controlDict" at line 2 to 41
    Entry 'tAvg' is not a dictionary
--> FOAM Warning : 
    From bool Foam::functionObjectList::read()
    in file db/functionObjects/functionObjectList/functionObjectList.C at line 1035
    Reading "system/controlDict" at line 2 to 41
    Entry 'tEnd' is not a dictionary
--> FOAM Warning : 
    From bool Foam::functionObjectList::read()
    in file db/functionObjects/functionObjectList/functionObjectList.C at line 1035
    Reading "system/controlDict" at line 2 to 41
    Entry 'writeInterval_' is not a dictionary
--> FOAM Warning : 
    From bool Foam::functionObjectList::read()
    in file db/functionObjects/functionObjectList/functionObjectList.C at line 1035
    Reading "system/controlDict" at line 2 to 41
    Entry 'nCores' is not a dictionary
--> FOAM Warning : 
    From bool Foam::functionObjectList::read()
    in file db/functionObjects/functionObjectList/functionObjectList.C at line 1035
    Reading "system/controlDict" at line 2 to 41
    Entry 'interpScheme' is not a dictionary
--> FOAM Warning : 
    From bool Foam::functionObjectList::read()
    in file db/functionObjects/functionObjectList/functionObjectList.C at line 1035
    Reading "system/controlDict" at line 2 to 41
    Entry 'probeField' is not a dictionary
wallShearStress wallShearStress:
    processing wall patches: 
        Windsor_Body
        CFDWT_Floor
        Windsor_Pins
        Windsor_Base
        Windsor_Body_2
        CFDWT_Floor_2
        Windsor_Pins_2
        Windsor_Base_2

pressure calc_cp:
    Operating mode: staticCoeff
    Not including hydrostatic effects

forceCoeffs forceCoeffsAll:
    rho: rhoInf
    Freestream density (rhoInf) set to 1
    Not including porosity effects
    magUInf: 40
    lRef   : 0.6375
    Aref   : 0.1124
    rhoInf : 1
    Selecting all coefficients
    - Drag force: Cd
    - Drag force front: Cd(f)
    - Drag force rear: Cd(r)
    - Lift force: Cl
    - Lift force front: Cl(f)
    - Lift force rear: Cl(r)
    - Pitch moment: CmPitch
    - Roll moment: CmRoll
    - Yaw moment: CmYaw
    - Side force: Cs
    - Side force front: Cs(f)
    - Side force rear: Cs(r)


forceCoeffs dragCoeffBase:
    rho: rhoInf
    Freestream density (rhoInf) set to 1
    Not including porosity effects
    magUInf: 40
    lRef   : 0.6375
    Aref   : 0.1124
    rhoInf : 1
    Selecting coefficients:
    - Drag force: Cd


Time = 1

velocityDampingConstraint velocityDamping damped 0 (0%) of cells, with max limit 300
[INFO] MatrixAssemblyU: 900.653 [ms]
smoothSolver:  Solving for Ux, Initial residual = 0.9999999999990405, Final residual = 0.08730445607952496, No Iterations 15
smoothSolver:  Solving for Uy, Initial residual = 1, Final residual = 0.08968840180626476, No Iterations 31
smoothSolver:  Solving for Uz, Initial residual = 1, Final residual = 0.03285888208608009, No Iterations 2
[INFO] MomentumPredictor: 925.175 [ms]
[INFO] MatrixAssemblyPI: 159.543 [ms]
[INFO] MatrixAssemblyPII: 75.491 [ms]
GAMG:  Solving for p, Initial residual = 1, Final residual = 0.009615099722356919, No Iterations 25
[INFO] SolveP: 2039.778 [ms]
time step continuity errors : sum local = 0.003527831401248991, global = 7.132697972124159e-06, cumulative = 7.132697972124159e-06
[INFO] postSolveP: 38.869 [ms]
smoothSolver:  Solving for nuTilda, Initial residual = 0.9999999997110568, Final residual = 0.06430621387038786, No Iterations 3
[INFO] TimeStep: 4675.166 [ms]
ExecutionTime = 16.46 s  ClockTime = 16 s

--> FOAM Warning : 
    From virtual bool Foam::functionObjects::fieldSelection::checkSelection()
    in file functionObjects/fieldSelections/fieldSelection/fieldSelection.C at line 166
    Field k not found
--> FOAM Warning : 
    From virtual bool Foam::functionObjects::fieldSelection::checkSelection()
    in file functionObjects/fieldSelections/fieldSelection/fieldSelection.C at line 166
    Field gammaInt not found
--> FOAM Warning : 
    From virtual bool Foam::functionObjects::fieldSelection::checkSelection()
    in file functionObjects/fieldSelections/fieldSelection/fieldSelection.C at line 166
    Field omega not found
--> FOAM Warning : 
    From virtual bool Foam::functionObjects::fieldSelection::checkSelection()
    in file functionObjects/fieldSelections/fieldSelection/fieldSelection.C at line 166
    Field ReThetat not found
--> FOAM Warning : 
    From virtual bool Foam::functionObjects::fieldSelection::checkSelection()
    in file functionObjects/fieldSelections/fieldSelection/fieldSelection.C at line 166
    Field epsilon not found
--> FOAM Warning : 
    From virtual bool Foam::functionObjects::solverFieldSelection::updateSelection()
    in file functionObjects/fieldSelections/solverFieldSelection/solverFieldSelection.C at line 85
    Valid solver fields are: 3(U nuTilda p)Time = 2

velocityDampingConstraint velocityDamping damped 0 (0%) of cells, with max limit 300
[INFO] MatrixAssemblyU: 843.774 [ms]
smoothSolver:  Solving for Ux, Initial residual = 0.213047105468456, Final residual = 0.01841318282121103, No Iterations 13
smoothSolver:  Solving for Uy, Initial residual = 0.3547338443457594, Final residual = 0.03312027085967133, No Iterations 13
smoothSolver:  Solving for Uz, Initial residual = 0.3289663904197996, Final residual = 0.02813077275880698, No Iterations 13
[INFO] MomentumPredictor: 763.7089999999999 [ms]
[INFO] MatrixAssemblyPI: 159.535 [ms]
[INFO] MatrixAssemblyPII: 76.05800000000001 [ms]
GAMG:  Solving for p, Initial residual = 0.2099282718645759, Final residual = 0.001437046665891046, No Iterations 15
[INFO] SolveP: 1088.637 [ms]
time step continuity errors : sum local = 0.02942914016766833, global = -0.0002402996115684369, cumulative = -0.0002331669135963128
[INFO] postSolveP: 38.846 [ms]
smoothSolver:  Solving for nuTilda, Initial residual = 0.4058609707829754, Final residual = 0.02534416461022259, No Iterations 1
[INFO] TimeStep: 3479.744 [ms]
ExecutionTime = 20.58 s  ClockTime = 20 s

Time = 3

velocityDampingConstraint velocityDamping damped 1662 (0.01%) of cells, with max limit 300
[INFO] MatrixAssemblyU: 850.0359999999999 [ms]
smoothSolver:  Solving for Ux, Initial residual = 0.1250099904570658, Final residual = 0.01185130852250807, No Iterations 9
smoothSolver:  Solving for Uy, Initial residual = 0.204401742641933, Final residual = 0.01990700332832265, No Iterations 10
smoothSolver:  Solving for Uz, Initial residual = 0.2162454859412902, Final residual = 0.02139865192107748, No Iterations 9
[INFO] MomentumPredictor: 584.079 [ms]
[INFO] MatrixAssemblyPI: 156.773 [ms]
[INFO] MatrixAssemblyPII: 76.152 [ms]
GAMG:  Solving for p, Initial residual = 0.1110775993637018, Final residual = 0.000666741182813354, No Iterations 12
[INFO] SolveP: 875.878 [ms]
time step continuity errors : sum local = 0.007916352315870713, global = -2.123591361831051e-05, cumulative = -0.0002544028272146233
[INFO] postSolveP: 38.078 [ms]
smoothSolver:  Solving for nuTilda, Initial residual = 0.2090058568693878, Final residual = 0.01314227874918921, No Iterations 2
[INFO] TimeStep: 3106.295 [ms]
ExecutionTime = 24.33 s  ClockTime = 24 s

Time = 4

velocityDampingConstraint velocityDamping damped 0 (0%) of cells, with max limit 300
[INFO] MatrixAssemblyU: 850.51 [ms]
smoothSolver:  Solving for Ux, Initial residual = 0.05436387022323936, Final residual = 0.0049362974893197, No Iterations 11
smoothSolver:  Solving for Uy, Initial residual = 0.1219360837822631, Final residual = 0.01072163177701528, No Iterations 11
smoothSolver:  Solving for Uz, Initial residual = 0.1321858014835656, Final residual = 0.01275917578414763, No Iterations 10
[INFO] MomentumPredictor: 648.236 [ms]
[INFO] MatrixAssemblyPI: 158.802 [ms]
[INFO] MatrixAssemblyPII: 75.744 [ms]
GAMG:  Solving for p, Initial residual = 0.1419290151511957, Final residual = 0.001106576361206248, No Iterations 7
[INFO] SolveP: 527.798 [ms]
time step continuity errors : sum local = 0.01051763661554668, global = 0.0001193808615713037, cumulative = -0.0001350219656433196
[INFO] postSolveP: 39.016 [ms]
smoothSolver:  Solving for nuTilda, Initial residual = 0.1249318950825014, Final residual = 0.0105019445035645, No Iterations 2
[INFO] TimeStep: 2822.61 [ms]
ExecutionTime = 27.81 s  ClockTime = 28 s

Time = 5

velocityDampingConstraint velocityDamping damped 229 (0%) of cells, with max limit 300
[INFO] MatrixAssemblyU: 844.179 [ms]
smoothSolver:  Solving for Ux, Initial residual = 0.04400976649140047, Final residual = 0.00419254287990528, No Iterations 10
smoothSolver:  Solving for Uy, Initial residual = 0.09745003870188215, Final residual = 0.009110451816381126, No Iterations 11
smoothSolver:  Solving for Uz, Initial residual = 0.1138274269865034, Final residual = 0.01119441443618482, No Iterations 10
[INFO] MomentumPredictor: 633.289 [ms]
[INFO] MatrixAssemblyPI: 158.415 [ms]
[INFO] MatrixAssemblyPII: 74.977 [ms]
GAMG:  Solving for p, Initial residual = 0.1086626336629567, Final residual = 0.0009177695209921964, No Iterations 8
[INFO] SolveP: 600.252 [ms]
time step continuity errors : sum local = 0.006493563594912773, global = 0.0001582709133041144, cumulative = 2.324894766079485e-05
[INFO] postSolveP: 38.718 [ms]
smoothSolver:  Solving for nuTilda, Initial residual = 0.07091851711326354, Final residual = 0.004310748289030109, No Iterations 3
[INFO] TimeStep: 2886.948 [ms]
ExecutionTime = 31.33 s  ClockTime = 31 s

Time = 6

velocityDampingConstraint velocityDamping damped 0 (0%) of cells, with max limit 300
[INFO] MatrixAssemblyU: 841.164 [ms]
smoothSolver:  Solving for Ux, Initial residual = 0.0299165591965092, Final residual = 0.002660845892782555, No Iterations 12
smoothSolver:  Solving for Uy, Initial residual = 0.07490223604708496, Final residual = 0.006930091356731973, No Iterations 12
smoothSolver:  Solving for Uz, Initial residual = 0.08146538228419323, Final residual = 0.006985956596518715, No Iterations 12
[INFO] MomentumPredictor: 710.042 [ms]
[INFO] MatrixAssemblyPI: 157.605 [ms]
[INFO] MatrixAssemblyPII: 75.15300000000001 [ms]
GAMG:  Solving for p, Initial residual = 0.0926246784678358, Final residual = 0.0008491654344626262, No Iterations 7
[INFO] SolveP: 527.086 [ms]
time step continuity errors : sum local = 0.006504649435612295, global = 2.262545263862835e-05, cumulative = 4.587440029942319e-05
[INFO] postSolveP: 38.575 [ms]
smoothSolver:  Solving for nuTilda, Initial residual = 0.06432780987053117, Final residual = 0.006431022049594011, No Iterations 2
[INFO] TimeStep: 2870.397 [ms]
ExecutionTime = 34.84 s  ClockTime = 35 s

Time = 7

velocityDampingConstraint velocityDamping damped 26 (0%) of cells, with max limit 300
[INFO] MatrixAssemblyU: 842.375 [ms]
smoothSolver:  Solving for Ux, Initial residual = 0.02713159489693641, Final residual = 0.002420588802782386, No Iterations 12
smoothSolver:  Solving for Uy, Initial residual = 0.06792775921233418, Final residual = 0.006437962935302868, No Iterations 12
smoothSolver:  Solving for Uz, Initial residual = 0.07164855641931284, Final residual = 0.006267889411081482, No Iterations 12
[INFO] MomentumPredictor: 711.629 [ms]
[INFO] MatrixAssemblyPI: 157.957 [ms]
[INFO] MatrixAssemblyPII: 75.98999999999999 [ms]
GAMG:  Solving for p, Initial residual = 0.08049920967881259, Final residual = 0.0006535324067047577, No Iterations 7
[INFO] SolveP: 525.413 [ms]
time step continuity errors : sum local = 0.004935281254719002, global = -3.847367039197518e-05, cumulative = 7.400729907448017e-06
[INFO] postSolveP: 38.868 [ms]
smoothSolver:  Solving for nuTilda, Initial residual = 0.04947702027479738, Final residual = 0.003235394954662468, No Iterations 3
[INFO] TimeStep: 2888.17 [ms]
ExecutionTime = 38.38 s  ClockTime = 38 s

Time = 8

velocityDampingConstraint velocityDamping damped 0 (0%) of cells, with max limit 300
[INFO] MatrixAssemblyU: 842.67 [ms]
smoothSolver:  Solving for Ux, Initial residual = 0.02311376891408728, Final residual = 0.002141951585778647, No Iterations 12
smoothSolver:  Solving for Uy, Initial residual = 0.06043888758070508, Final residual = 0.005931583309846097, No Iterations 12
smoothSolver:  Solving for Uz, Initial residual = 0.06228413827920317, Final residual = 0.005634828263541896, No Iterations 12
[INFO] MomentumPredictor: 712.139 [ms]
[INFO] MatrixAssemblyPI: 158.111 [ms]
[INFO] MatrixAssemblyPII: 75.55800000000001 [ms]
GAMG:  Solving for p, Initial residual = 0.07305843274660628, Final residual = 0.0005050140627181224, No Iterations 6
[INFO] SolveP: 459.512 [ms]
time step continuity errors : sum local = 0.003874146040720073, global = -4.447267907013792e-05, cumulative = -3.70719491626899e-05
[INFO] postSolveP: 38.779 [ms]
smoothSolver:  Solving for nuTilda, Initial residual = 0.0658603056799216, Final residual = 0.00589204840431157, No Iterations 2
[INFO] TimeStep: 2803.904 [ms]
ExecutionTime = 41.81 s  ClockTime = 42 s

Time = 9

velocityDampingConstraint velocityDamping damped 0 (0%) of cells, with max limit 300
[INFO] MatrixAssemblyU: 838.958 [ms]
smoothSolver:  Solving for Ux, Initial residual = 0.02032625155856089, Final residual = 0.001899491114533998, No Iterations 12
smoothSolver:  Solving for Uy, Initial residual = 0.05450346217477132, Final residual = 0.00543429474376805, No Iterations 12
smoothSolver:  Solving for Uz, Initial residual = 0.05530057682458164, Final residual = 0.005135856348366098, No Iterations 12
[INFO] MomentumPredictor: 711.9349999999999 [ms]
[INFO] MatrixAssemblyPI: 158.136 [ms]
[INFO] MatrixAssemblyPII: 75.596 [ms]
GAMG:  Solving for p, Initial residual = 0.06725280680147824, Final residual = 0.0004799162842239014, No Iterations 6
[INFO] SolveP: 458.303 [ms]
time step continuity errors : sum local = 0.003690610892704231, global = -2.784931920177589e-05, cumulative = -6.492126836446579e-05
[INFO] postSolveP: 38.729 [ms]
smoothSolver:  Solving for nuTilda, Initial residual = 0.04446344674109918, Final residual = 0.003226862848347961, No Iterations 3
[INFO] TimeStep: 2818.97 [ms]
ExecutionTime = 45.27 s  ClockTime = 45 s

Time = 10

velocityDampingConstraint velocityDamping damped 0 (0%) of cells, with max limit 300
[INFO] MatrixAssemblyU: 841.615 [ms]
smoothSolver:  Solving for Ux, Initial residual = 0.01831869840234716, Final residual = 0.001726560394899701, No Iterations 12
smoothSolver:  Solving for Uy, Initial residual = 0.05030473710972239, Final residual = 0.005001626485594047, No Iterations 12
smoothSolver:  Solving for Uz, Initial residual = 0.05059663833687175, Final residual = 0.00476321394596011, No Iterations 12
[INFO] MomentumPredictor: 708.6849999999999 [ms]
[INFO] MatrixAssemblyPI: 158.06 [ms]
[INFO] MatrixAssemblyPII: 75.39100000000001 [ms]
GAMG:  Solving for p, Initial residual = 0.06149462655140498, Final residual = 0.0004783967955735359, No Iterations 6
[INFO] SolveP: 458.751 [ms]
time step continuity errors : sum local = 0.003643983388207405, global = 9.254906692313401e-06, cumulative = -5.566636167215239e-05
[INFO] postSolveP: 38.72 [ms]
smoothSolver:  Solving for nuTilda, Initial residual = 0.06998111020341032, Final residual = 0.005533641826164646, No Iterations 2
[INFO] TimeStep: 2800.611 [ms]
ExecutionTime = 48.71 s  ClockTime = 49 s

Time = 11

velocityDampingConstraint velocityDamping damped 0 (0%) of cells, with max limit 300
[INFO] MatrixAssemblyU: 839.053 [ms]
smoothSolver:  Solving for Ux, Initial residual = 0.01667077210540219, Final residual = 0.001604272276097815, No Iterations 12
smoothSolver:  Solving for Uy, Initial residual = 0.04746860747283686, Final residual = 0.00469221509304994, No Iterations 12
smoothSolver:  Solving for Uz, Initial residual = 0.04735624251213925, Final residual = 0.004495592535342066, No Iterations 12
[INFO] MomentumPredictor: 711.374 [ms]
[INFO] MatrixAssemblyPI: 158.278 [ms]
[INFO] MatrixAssemblyPII: 75.63800000000001 [ms]
GAMG:  Solving for p, Initial residual = 0.05703670188749987, Final residual = 0.0004786229753442632, No Iterations 6
[INFO] SolveP: 456.559 [ms]
time step continuity errors : sum local = 0.0036653367680402, global = 2.92817647622016e-05, cumulative = -2.638459690995079e-05
[INFO] postSolveP: 38.986 [ms]
smoothSolver:  Solving for nuTilda, Initial residual = 0.0393482023926708, Final residual = 0.003053883756273869, No Iterations 3
[INFO] TimeStep: 2813.526 [ms]
ExecutionTime = 52.16 s  ClockTime = 52 s

Time = 12

velocityDampingConstraint velocityDamping damped 0 (0%) of cells, with max limit 300
[INFO] MatrixAssemblyU: 841.631 [ms]
smoothSolver:  Solving for Ux, Initial residual = 0.01554010580835371, Final residual = 0.001517801410434232, No Iterations 12
smoothSolver:  Solving for Uy, Initial residual = 0.04539334092328241, Final residual = 0.00445906535675739, No Iterations 12
smoothSolver:  Solving for Uz, Initial residual = 0.04491004528891148, Final residual = 0.00428589654607952, No Iterations 12
[INFO] MomentumPredictor: 712.843 [ms]
[INFO] MatrixAssemblyPI: 157.224 [ms]
[INFO] MatrixAssemblyPII: 76.923 [ms]
GAMG:  Solving for p, Initial residual = 0.05301271705330664, Final residual = 0.0004429924404034736, No Iterations 6
[INFO] SolveP: 458.899 [ms]
time step continuity errors : sum local = 0.003417358570232029, global = 3.269015269394759e-05, cumulative = 6.305555783996802e-06
[INFO] postSolveP: 38.88 [ms]
smoothSolver:  Solving for nuTilda, Initial residual = 0.06585047139954432, Final residual = 0.005138860094994661, No Iterations 2
[INFO] TimeStep: 2804.984 [ms]
ExecutionTime = 55.6 s  ClockTime = 56 s

Time = 13

velocityDampingConstraint velocityDamping damped 0 (0%) of cells, with max limit 300
[INFO] MatrixAssemblyU: 839.283 [ms]
smoothSolver:  Solving for Ux, Initial residual = 0.01451435634772539, Final residual = 0.001444094974469677, No Iterations 12
smoothSolver:  Solving for Uy, Initial residual = 0.04348389536524039, Final residual = 0.004263168550240294, No Iterations 12
smoothSolver:  Solving for Uz, Initial residual = 0.04307227262538248, Final residual = 0.004137229775320514, No Iterations 12
[INFO] MomentumPredictor: 712.629 [ms]
[INFO] MatrixAssemblyPI: 158.924 [ms]
[INFO] MatrixAssemblyPII: 76.08799999999999 [ms]
GAMG:  Solving for p, Initial residual = 0.04973135007222434, Final residual = 0.000396599143430132, No Iterations 6
[INFO] SolveP: 457.629 [ms]
time step continuity errors : sum local = 0.003079233715169585, global = 2.054954159597578e-05, cumulative = 2.685509737997258e-05
[INFO] postSolveP: 38.378 [ms]
smoothSolver:  Solving for nuTilda, Initial residual = 0.03476483886281796, Final residual = 0.00285311636878724, No Iterations 3
[INFO] TimeStep: 2818.423 [ms]
ExecutionTime = 59.05 s  ClockTime = 59 s

Time = 14

velocityDampingConstraint velocityDamping damped 0 (0%) of cells, with max limit 300
[INFO] MatrixAssemblyU: 835.6369999999999 [ms]
smoothSolver:  Solving for Ux, Initial residual = 0.01368343620152538, Final residual = 0.00117306093766683, No Iterations 13
smoothSolver:  Solving for Uy, Initial residual = 0.04167752129685642, Final residual = 0.004096778390673621, No Iterations 12
smoothSolver:  Solving for Uz, Initial residual = 0.04203591674377057, Final residual = 0.004058900703213961, No Iterations 12
[INFO] MomentumPredictor: 727.276 [ms]
[INFO] MatrixAssemblyPI: 157.81 [ms]
[INFO] MatrixAssemblyPII: 75.435 [ms]
GAMG:  Solving for p, Initial residual = 0.04726869969848988, Final residual = 0.0003388656435315185, No Iterations 6
[INFO] SolveP: 456.48 [ms]
time step continuity errors : sum local = 0.002643463987787026, global = 6.340045347825191e-06, cumulative = 3.319514272779777e-05
[INFO] postSolveP: 38.726 [ms]
smoothSolver:  Solving for nuTilda, Initial residual = 0.05852544532059314, Final residual = 0.00482732076701244, No Iterations 2
[INFO] TimeStep: 2809.76 [ms]
ExecutionTime = 62.49 s  ClockTime = 62 s

Time = 15

velocityDampingConstraint velocityDamping damped 0 (0%) of cells, with max limit 300
[INFO] MatrixAssemblyU: 840.111 [ms]
smoothSolver:  Solving for Ux, Initial residual = 0.01281560348814795, Final residual = 0.00111030049021725, No Iterations 13
smoothSolver:  Solving for Uy, Initial residual = 0.04026636050026319, Final residual = 0.003984092142274815, No Iterations 12
smoothSolver:  Solving for Uz, Initial residual = 0.04168039782144607, Final residual = 0.004050899739676863, No Iterations 12
[INFO] MomentumPredictor: 726.962 [ms]
[INFO] MatrixAssemblyPI: 157.715 [ms]
[INFO] MatrixAssemblyPII: 74.486 [ms]
GAMG:  Solving for p, Initial residual = 0.04565088067226213, Final residual = 0.0003179111829198459, No Iterations 6
[INFO] SolveP: 456.621 [ms]
time step continuity errors : sum local = 0.002491899324119593, global = -7.244356309835186e-06, cumulative = 2.595078641796258e-05
[INFO] postSolveP: 38.563 [ms]
smoothSolver:  Solving for nuTilda, Initial residual = 0.03117220786973549, Final residual = 0.002682023897308428, No Iterations 3
[INFO] TimeStep: 2829.969 [ms]
ExecutionTime = 65.95999999999999 s  ClockTime = 66 s

Time = 16

velocityDampingConstraint velocityDamping damped 0 (0%) of cells, with max limit 300
[INFO] MatrixAssemblyU: 837.154 [ms]
smoothSolver:  Solving for Ux, Initial residual = 0.01218027415584668, Final residual = 0.001054724492311941, No Iterations 13
smoothSolver:  Solving for Uy, Initial residual = 0.03934101684923282, Final residual = 0.003912400462778235, No Iterations 12
smoothSolver:  Solving for Uz, Initial residual = 0.04160081778565651, Final residual = 0.004055851679207815, No Iterations 12
[INFO] MomentumPredictor: 725.725 [ms]
[INFO] MatrixAssemblyPI: 156.992 [ms]
[INFO] MatrixAssemblyPII: 75.021 [ms]
GAMG:  Solving for p, Initial residual = 0.04435615858554363, Final residual = 0.0002999075244527144, No Iterations 6
[INFO] SolveP: 456.446 [ms]
time step continuity errors : sum local = 0.002358518561989154, global = -1.433169004814053e-05, cumulative = 1.161909636982206e-05
[INFO] postSolveP: 38.621 [ms]
smoothSolver:  Solving for nuTilda, Initial residual = 0.05193994882628414, Final residual = 0.004572361595581579, No Iterations 2
[INFO] TimeStep: 2808.504 [ms]
ExecutionTime = 69.41 s  ClockTime = 69 s

Time = 17

velocityDampingConstraint velocityDamping damped 0 (0%) of cells, with max limit 300
[INFO] MatrixAssemblyU: 836.522 [ms]
smoothSolver:  Solving for Ux, Initial residual = 0.01155866556879184, Final residual = 0.001006253822852429, No Iterations 13
smoothSolver:  Solving for Uy, Initial residual = 0.03879217635316026, Final residual = 0.003300948974890785, No Iterations 13
smoothSolver:  Solving for Uz, Initial residual = 0.04155315728755314, Final residual = 0.00405981559831678, No Iterations 12
[INFO] MomentumPredictor: 744.028 [ms]
[INFO] MatrixAssemblyPI: 158.235 [ms]
[INFO] MatrixAssemblyPII: 75.72499999999999 [ms]
GAMG:  Solving for p, Initial residual = 0.04389822006096178, Final residual = 0.0002974189182828529, No Iterations 6
[INFO] SolveP: 457.768 [ms]
time step continuity errors : sum local = 0.002353115914152234, global = -1.569764654924299e-05, cumulative = -4.07855017942093e-06
[INFO] postSolveP: 40.125 [ms]
smoothSolver:  Solving for nuTilda, Initial residual = 0.02853574945841833, Final residual = 0.002530437773440134, No Iterations 3
[INFO] TimeStep: 2843.664 [ms]
ExecutionTime = 72.88 s  ClockTime = 73 s

Time = 18

velocityDampingConstraint velocityDamping damped 0 (0%) of cells, with max limit 300
[INFO] MatrixAssemblyU: 841.234 [ms]
smoothSolver:  Solving for Ux, Initial residual = 0.01122124140389505, Final residual = 0.0009671380857110508, No Iterations 13
smoothSolver:  Solving for Uy, Initial residual = 0.03852153308864446, Final residual = 0.003289186454413477, No Iterations 13
smoothSolver:  Solving for Uz, Initial residual = 0.04180996636976815, Final residual = 0.004071521535355832, No Iterations 12
[INFO] MomentumPredictor: 747.102 [ms]
[INFO] MatrixAssemblyPI: 157.616 [ms]
[INFO] MatrixAssemblyPII: 75.828 [ms]
GAMG:  Solving for p, Initial residual = 0.04376530191752033, Final residual = 0.0002939304255981582, No Iterations 6
[INFO] SolveP: 458.198 [ms]
time step continuity errors : sum local = 0.002340173349358286, global = -6.357350498390009e-06, cumulative = -1.043590067781094e-05
[INFO] postSolveP: 38.37 [ms]
smoothSolver:  Solving for nuTilda, Initial residual = 0.04657724911749959, Final residual = 0.004317468822703365, No Iterations 2
[INFO] TimeStep: 2834.335 [ms]
ExecutionTime = 76.34999999999999 s  ClockTime = 76 s

Time = 19

velocityDampingConstraint velocityDamping damped 0 (0%) of cells, with max limit 300
[INFO] MatrixAssemblyU: 835.856 [ms]
smoothSolver:  Solving for Ux, Initial residual = 0.01086691247009047, Final residual = 0.000936484022909104, No Iterations 13
smoothSolver:  Solving for Uy, Initial residual = 0.03884842648460806, Final residual = 0.003317084520815504, No Iterations 13
smoothSolver:  Solving for Uz, Initial residual = 0.04254814061305669, Final residual = 0.004115683499111925, No Iterations 12
[INFO] MomentumPredictor: 744.579 [ms]
[INFO] MatrixAssemblyPI: 157.937 [ms]
[INFO] MatrixAssemblyPII: 74.54300000000001 [ms]
GAMG:  Solving for p, Initial residual = 0.04398710822511956, Final residual = 0.0002818440994797162, No Iterations 6
[INFO] SolveP: 458.198 [ms]
time step continuity errors : sum local = 0.002258989220768181, global = 4.555236194709138e-06, cumulative = -5.880664483101801e-06
[INFO] postSolveP: 38.685 [ms]
smoothSolver:  Solving for nuTilda, Initial residual = 0.02654639874082522, Final residual = 0.002378962536395219, No Iterations 3
[INFO] TimeStep: 2844.375 [ms]
ExecutionTime = 79.83 s  ClockTime = 80 s

Time = 20

velocityDampingConstraint velocityDamping damped 0 (0%) of cells, with max limit 300
[INFO] MatrixAssemblyU: 836.566 [ms]
smoothSolver:  Solving for Ux, Initial residual = 0.01069452726413822, Final residual = 0.0009171198101773697, No Iterations 13
smoothSolver:  Solving for Uy, Initial residual = 0.03927523716977945, Final residual = 0.003920296301802429, No Iterations 12
smoothSolver:  Solving for Uz, Initial residual = 0.04315833853295666, Final residual = 0.004149010574093384, No Iterations 12
[INFO] MomentumPredictor: 726.386 [ms]
[INFO] MatrixAssemblyPI: 158.729 [ms]
[INFO] MatrixAssemblyPII: 75.47499999999999 [ms]
GAMG:  Solving for p, Initial residual = 0.04388034809066598, Final residual = 0.0002727501902962117, No Iterations 6
[INFO] SolveP: 456.764 [ms]
time step continuity errors : sum local = 0.002206961910901852, global = 1.348636789517757e-05, cumulative = 7.605703412075774e-06
[INFO] postSolveP: 38.281 [ms]
smoothSolver:  Solving for nuTilda, Initial residual = 0.04201905290255632, Final residual = 0.004061128404670773, No Iterations 2
[INFO] TimeStep: 2808.881 [ms]
ExecutionTime = 83.27 s  ClockTime = 83 s

Time = 21

velocityDampingConstraint velocityDamping damped 0 (0%) of cells, with max limit 300
[INFO] MatrixAssemblyU: 835.54 [ms]
smoothSolver:  Solving for Ux, Initial residual = 0.01048821359506521, Final residual = 0.0009033771406820842, No Iterations 13
smoothSolver:  Solving for Uy, Initial residual = 0.0399230745362057, Final residual = 0.003971076362921855, No Iterations 12
smoothSolver:  Solving for Uz, Initial residual = 0.04347906710081153, Final residual = 0.004145734692206091, No Iterations 12
[INFO] MomentumPredictor: 728.421 [ms]
[INFO] MatrixAssemblyPI: 158.192 [ms]
[INFO] MatrixAssemblyPII: 75.824 [ms]
GAMG:  Solving for p, Initial residual = 0.04387342056280825, Final residual = 0.0002821211054347131, No Iterations 6
[INFO] SolveP: 456.257 [ms]
time step continuity errors : sum local = 0.002312761933210798, global = 1.911119672439978e-05, cumulative = 2.671690013647556e-05
[INFO] postSolveP: 38.694 [ms]
smoothSolver:  Solving for nuTilda, Initial residual = 0.02488295705189525, Final residual = 0.002231089746130553, No Iterations 3
[INFO] TimeStep: 2826.748 [ms]
ExecutionTime = 86.73 s  ClockTime = 87 s

Time = 22

velocityDampingConstraint velocityDamping damped 0 (0%) of cells, with max limit 300
[INFO] MatrixAssemblyU: 836.634 [ms]
smoothSolver:  Solving for Ux, Initial residual = 0.01045898748698866, Final residual = 0.0008919306203349248, No Iterations 13
smoothSolver:  Solving for Uy, Initial residual = 0.04057452409042029, Final residual = 0.003996310550766873, No Iterations 12
smoothSolver:  Solving for Uz, Initial residual = 0.04340061592487313, Final residual = 0.004102687680192161, No Iterations 12
[INFO] MomentumPredictor: 727.453 [ms]
[INFO] MatrixAssemblyPI: 157.217 [ms]
[INFO] MatrixAssemblyPII: 74.934 [ms]
GAMG:  Solving for p, Initial residual = 0.04362186983941111, Final residual = 0.0002866819811634688, No Iterations 6
[INFO] SolveP: 457.177 [ms]
time step continuity errors : sum local = 0.002382386841911514, global = 2.299237422610608e-05, cumulative = 4.970927436258163e-05
[INFO] postSolveP: 38.471 [ms]
smoothSolver:  Solving for nuTilda, Initial residual = 0.03812161813501937, Final residual = 0.002025110583195487, No Iterations 3
[INFO] TimeStep: 2825.654 [ms]
ExecutionTime = 90.19 s  ClockTime = 90 s

Time = 23

velocityDampingConstraint velocityDamping damped 0 (0%) of cells, with max limit 300
[INFO] MatrixAssemblyU: 837.258 [ms]
smoothSolver:  Solving for Ux, Initial residual = 0.01032590337827019, Final residual = 0.0008826358344396831, No Iterations 13
smoothSolver:  Solving for Uy, Initial residual = 0.04118149712813902, Final residual = 0.004000952290205554, No Iterations 12
smoothSolver:  Solving for Uz, Initial residual = 0.04298487262689328, Final residual = 0.004020203569518327, No Iterations 12
[INFO] MomentumPredictor: 727.235 [ms]
[INFO] MatrixAssemblyPI: 157.931 [ms]
[INFO] MatrixAssemblyPII: 75.601 [ms]
GAMG:  Solving for p, Initial residual = 0.04334321838681786, Final residual = 0.000292328897017181, No Iterations 6
[INFO] SolveP: 457.131 [ms]
time step continuity errors : sum local = 0.002467577888819479, global = 2.724410451428237e-05, cumulative = 7.6953378876864e-05
[INFO] postSolveP: 38.592 [ms]
smoothSolver:  Solving for nuTilda, Initial residual = 0.02316525880886589, Final residual = 0.00209730179014208, No Iterations 3
[INFO] TimeStep: 2826.503 [ms]
ExecutionTime = 93.65000000000001 s  ClockTime = 94 s

Time = 24

velocityDampingConstraint velocityDamping damped 0 (0%) of cells, with max limit 300
[INFO] MatrixAssemblyU: 836.897 [ms]
smoothSolver:  Solving for Ux, Initial residual = 0.01034949936584472, Final residual = 0.00102957137327079, No Iterations 12
smoothSolver:  Solving for Uy, Initial residual = 0.04189514984327136, Final residual = 0.004039244803828427, No Iterations 12
smoothSolver:  Solving for Uz, Initial residual = 0.04256334731968175, Final residual = 0.003944068008846941, No Iterations 12
[INFO] MomentumPredictor: 713.811 [ms]
[INFO] MatrixAssemblyPI: 159.447 [ms]
[INFO] MatrixAssemblyPII: 76.08799999999999 [ms]
GAMG:  Solving for p, Initial residual = 0.04294851434061901, Final residual = 0.0002976457757969149, No Iterations 6
[INFO] SolveP: 457.347 [ms]
time step continuity errors : sum local = 0.002555496917740434, global = 2.804479379643083e-05, cumulative = 0.0001049981726732948
[INFO] postSolveP: 38.251 [ms]
smoothSolver:  Solving for nuTilda, Initial residual = 0.03461033108025274, Final residual = 0.001915142371026655, No Iterations 3
[INFO] TimeStep: 2814.547 [ms]
ExecutionTime = 97.09 s  ClockTime = 97 s

Time = 25

velocityDampingConstraint velocityDamping damped 0 (0%) of cells, with max limit 300
[INFO] MatrixAssemblyU: 834.5309999999999 [ms]
smoothSolver:  Solving for Ux, Initial residual = 0.01028983173775674, Final residual = 0.0008810095197468422, No Iterations 13
smoothSolver:  Solving for Uy, Initial residual = 0.0427291000614502, Final residual = 0.004131834389978072, No Iterations 12
smoothSolver:  Solving for Uz, Initial residual = 0.04230696093221388, Final residual = 0.003910086992934783, No Iterations 12
[INFO] MomentumPredictor: 728.8680000000001 [ms]
[INFO] MatrixAssemblyPI: 157.991 [ms]
[INFO] MatrixAssemblyPII: 75.361 [ms]
GAMG:  Solving for p, Initial residual = 0.04226114445881313, Final residual = 0.0002931040070494854, No Iterations 6
[INFO] SolveP: 458.952 [ms]
time step continuity errors : sum local = 0.002561640266425675, global = 3.581759097540465e-05, cumulative = 0.0001408157636486995
[INFO] postSolveP: 38.56 [ms]
smoothSolver:  Solving for nuTilda, Initial residual = 0.02135300509573044, Final residual = 0.001964612371845379, No Iterations 3
[INFO] TimeStep: 2826.553 [ms]
ExecutionTime = 100.55 s  ClockTime = 101 s

Time = 26

velocityDampingConstraint velocityDamping damped 0 (0%) of cells, with max limit 300
[INFO] MatrixAssemblyU: 837.8920000000001 [ms]
smoothSolver:  Solving for Ux, Initial residual = 0.01036503956680383, Final residual = 0.001033476530240699, No Iterations 12
smoothSolver:  Solving for Uy, Initial residual = 0.04365256518941876, Final residual = 0.004281017766357245, No Iterations 12
smoothSolver:  Solving for Uz, Initial residual = 0.04229294879272354, Final residual = 0.003953090119927417, No Iterations 12
[INFO] MomentumPredictor: 709.708 [ms]
[INFO] MatrixAssemblyPI: 158.855 [ms]
[INFO] MatrixAssemblyPII: 75.718 [ms]
GAMG:  Solving for p, Initial residual = 0.04184683678742935, Final residual = 0.0002929891628386684, No Iterations 6
[INFO] SolveP: 457.918 [ms]
time step continuity errors : sum local = 0.002594712152191389, global = 3.846902595693153e-05, cumulative = 0.000179284789605631
[INFO] postSolveP: 38.371 [ms]
smoothSolver:  Solving for nuTilda, Initial residual = 0.03163311585693394, Final residual = 0.001808955540644223, No Iterations 3
[INFO] TimeStep: 2812.403 [ms]
ExecutionTime = 104 s  ClockTime = 104 s

Time = 27

velocityDampingConstraint velocityDamping damped 0 (0%) of cells, with max limit 300
[INFO] MatrixAssemblyU: 834.412 [ms]
smoothSolver:  Solving for Ux, Initial residual = 0.01036449527354652, Final residual = 0.001035061072437703, No Iterations 12
smoothSolver:  Solving for Uy, Initial residual = 0.04467604545775593, Final residual = 0.00444772552248072, No Iterations 12
smoothSolver:  Solving for Uz, Initial residual = 0.04258821867148326, Final residual = 0.004034228093613719, No Iterations 12
[INFO] MomentumPredictor: 711.15 [ms]
[INFO] MatrixAssemblyPI: 157.052 [ms]
[INFO] MatrixAssemblyPII: 75.7 [ms]
GAMG:  Solving for p, Initial residual = 0.04206436593484317, Final residual = 0.0002906992124801618, No Iterations 6
[INFO] SolveP: 456.525 [ms]
time step continuity errors : sum local = 0.002609745779415887, global = 4.332884779089432e-05, cumulative = 0.0002226136373965253
[INFO] postSolveP: 38.659 [ms]
smoothSolver:  Solving for nuTilda, Initial residual = 0.01976315162482725, Final residual = 0.001838096783670846, No Iterations 3
[INFO] TimeStep: 2808.54 [ms]
ExecutionTime = 107.44 s  ClockTime = 108 s

Time = 28

velocityDampingConstraint velocityDamping damped 0 (0%) of cells, with max limit 300
[INFO] MatrixAssemblyU: 838.454 [ms]
smoothSolver:  Solving for Ux, Initial residual = 0.01051235779455652, Final residual = 0.001038814243953371, No Iterations 12
smoothSolver:  Solving for Uy, Initial residual = 0.04603349952059301, Final residual = 0.003947126561628144, No Iterations 13
smoothSolver:  Solving for Uz, Initial residual = 0.04359665759742997, Final residual = 0.004146149016863178, No Iterations 12
[INFO] MomentumPredictor: 727.143 [ms]
[INFO] MatrixAssemblyPI: 158.177 [ms]
[INFO] MatrixAssemblyPII: 75.61199999999999 [ms]
GAMG:  Solving for p, Initial residual = 0.04296729101022937, Final residual = 0.0002913458128854387, No Iterations 6
[INFO] SolveP: 456.492 [ms]
time step continuity errors : sum local = 0.00265151597774622, global = 4.422426938852134e-05, cumulative = 0.0002668379067850466
[INFO] postSolveP: 38.375 [ms]
smoothSolver:  Solving for nuTilda, Initial residual = 0.02909294550613081, Final residual = 0.00170184090245209, No Iterations 3
[INFO] TimeStep: 2825.978 [ms]
ExecutionTime = 110.9 s  ClockTime = 111 s

Time = 29

velocityDampingConstraint velocityDamping damped 0 (0%) of cells, with max limit 300
[INFO] MatrixAssemblyU: 833.755 [ms]
smoothSolver:  Solving for Ux, Initial residual = 0.01055244701192288, Final residual = 0.001041006496062421, No Iterations 12
smoothSolver:  Solving for Uy, Initial residual = 0.04762391523088461, Final residual = 0.004085059737520944, No Iterations 13
smoothSolver:  Solving for Uz, Initial residual = 0.04503908298960051, Final residual = 0.004286582389378697, No Iterations 12
[INFO] MomentumPredictor: 728.779 [ms]
[INFO] MatrixAssemblyPI: 158.503 [ms]
[INFO] MatrixAssemblyPII: 75.28700000000001 [ms]
GAMG:  Solving for p, Initial residual = 0.04390402943909218, Final residual = 0.0002844030694125581, No Iterations 6
[INFO] SolveP: 457.03 [ms]
time step continuity errors : sum local = 0.002623286534968026, global = 4.589212756739764e-05, cumulative = 0.0003127300343524443
[INFO] postSolveP: 38.756 [ms]
smoothSolver:  Solving for nuTilda, Initial residual = 0.01833600751023733, Final residual = 0.001713960692860598, No Iterations 3
[INFO] TimeStep: 2826.239 [ms]
ExecutionTime = 114.36 s  ClockTime = 115 s

Time = 30

velocityDampingConstraint velocityDamping damped 0 (0%) of cells, with max limit 300
[INFO] MatrixAssemblyU: 841.101 [ms]
smoothSolver:  Solving for Ux, Initial residual = 0.01074996738681102, Final residual = 0.001047575288735504, No Iterations 12
smoothSolver:  Solving for Uy, Initial residual = 0.04968628483421173, Final residual = 0.00423312197828276, No Iterations 13
smoothSolver:  Solving for Uz, Initial residual = 0.04663008748578657, Final residual = 0.004419439432924725, No Iterations 12
[INFO] MomentumPredictor: 726.268 [ms]
[INFO] MatrixAssemblyPI: 157.052 [ms]
[INFO] MatrixAssemblyPII: 75.571 [ms]
GAMG:  Solving for p, Initial residual = 0.04479181560883106, Final residual = 0.0002760830157373825, No Iterations 6
[INFO] SolveP: 457.017 [ms]
time step continuity errors : sum local = 0.002581765496317826, global = 4.322160136777049e-05, cumulative = 0.0003559516357202148
[INFO] postSolveP: 38.249 [ms]
smoothSolver:  Solving for nuTilda, Initial residual = 0.02687789269115811, Final residual = 0.001594621955690602, No Iterations 3
[INFO] TimeStep: 2828.937 [ms]
ExecutionTime = 117.81 s  ClockTime = 118 s

Time = 31

velocityDampingConstraint velocityDamping damped 0 (0%) of cells, with max limit 300
[INFO] MatrixAssemblyU: 835.982 [ms]
smoothSolver:  Solving for Ux, Initial residual = 0.01082088678144994, Final residual = 0.001054465438269583, No Iterations 12
smoothSolver:  Solving for Uy, Initial residual = 0.0520221676389092, Final residual = 0.005181277586570228, No Iterations 12
smoothSolver:  Solving for Uz, Initial residual = 0.04832673090970448, Final residual = 0.004575019561109342, No Iterations 12
[INFO] MomentumPredictor: 711.89 [ms]
[INFO] MatrixAssemblyPI: 158.214 [ms]
[INFO] MatrixAssemblyPII: 75.636 [ms]
GAMG:  Solving for p, Initial residual = 0.04602103148378088, Final residual = 0.0002648314245497894, No Iterations 6
[INFO] SolveP: 455.741 [ms]
time step continuity errors : sum local = 0.002506801820644624, global = 4.01298987218305e-05, cumulative = 0.0003960815344420453
[INFO] postSolveP: 38.686 [ms]
smoothSolver:  Solving for nuTilda, Initial residual = 0.01705229754068816, Final residual = 0.001595000104037172, No Iterations 3
[INFO] TimeStep: 2806.548 [ms]
ExecutionTime = 121.26 s  ClockTime = 122 s

Time = 32

velocityDampingConstraint velocityDamping damped 0 (0%) of cells, with max limit 300
[INFO] MatrixAssemblyU: 833.899 [ms]
smoothSolver:  Solving for Ux, Initial residual = 0.01094909539758373, Final residual = 0.001061569503325349, No Iterations 12
smoothSolver:  Solving for Uy, Initial residual = 0.05442800236916888, Final residual = 0.005418106246034685, No Iterations 12
smoothSolver:  Solving for Uz, Initial residual = 0.04987505937094847, Final residual = 0.004777337605039941, No Iterations 12
[INFO] MomentumPredictor: 708.303 [ms]
[INFO] MatrixAssemblyPI: 157.527 [ms]
[INFO] MatrixAssemblyPII: 75.962 [ms]
GAMG:  Solving for p, Initial residual = 0.04759650996540221, Final residual = 0.0004697447567735309, No Iterations 5
[INFO] SolveP: 386.282 [ms]
time step continuity errors : sum local = 0.004491746375053316, global = 4.305840298418048e-05, cumulative = 0.0004391399374262257
[INFO] postSolveP: 38.479 [ms]
smoothSolver:  Solving for nuTilda, Initial residual = 0.02497203078305514, Final residual = 0.001492124823863535, No Iterations 3
[INFO] TimeStep: 2733.377 [ms]
ExecutionTime = 124.62 s  ClockTime = 125 s

Time = 33

velocityDampingConstraint velocityDamping damped 0 (0%) of cells, with max limit 300
[INFO] MatrixAssemblyU: 832.545 [ms]
smoothSolver:  Solving for Ux, Initial residual = 0.01090816303462336, Final residual = 0.001067664442916796, No Iterations 12
smoothSolver:  Solving for Uy, Initial residual = 0.05672222400566818, Final residual = 0.005638259237876021, No Iterations 12
smoothSolver:  Solving for Uz, Initial residual = 0.05202368587985711, Final residual = 0.005047313767273709, No Iterations 12
[INFO] MomentumPredictor: 711.978 [ms]
[INFO] MatrixAssemblyPI: 158.474 [ms]
[INFO] MatrixAssemblyPII: 75.321 [ms]
GAMG:  Solving for p, Initial residual = 0.04953010164038772, Final residual = 0.0002859810810935835, No Iterations 6
[INFO] SolveP: 460.22 [ms]
time step continuity errors : sum local = 0.002758723867890913, global = 3.359870288856538e-05, cumulative = 0.0004727386403147911
[INFO] postSolveP: 38.781 [ms]
smoothSolver:  Solving for nuTilda, Initial residual = 0.01595416911504986, Final residual = 0.001485132512326008, No Iterations 3
[INFO] TimeStep: 2810.505 [ms]
ExecutionTime = 128.06 s  ClockTime = 128 s

Time = 34

velocityDampingConstraint velocityDamping damped 0 (0%) of cells, with max limit 300
[INFO] MatrixAssemblyU: 835.047 [ms]
smoothSolver:  Solving for Ux, Initial residual = 0.01103618302580375, Final residual = 0.001078954387469425, No Iterations 12
smoothSolver:  Solving for Uy, Initial residual = 0.05930667579710862, Final residual = 0.005901513290308087, No Iterations 12
smoothSolver:  Solving for Uz, Initial residual = 0.0545580515046994, Final residual = 0.005351655777211234, No Iterations 12
[INFO] MomentumPredictor: 708.761 [ms]
[INFO] MatrixAssemblyPI: 157.529 [ms]
[INFO] MatrixAssemblyPII: 74.25700000000001 [ms]
GAMG:  Solving for p, Initial residual = 0.05174464747778818, Final residual = 0.0004924411323587324, No Iterations 5
[INFO] SolveP: 387.742 [ms]
time step continuity errors : sum local = 0.00479158243035151, global = 3.569012385035507e-05, cumulative = 0.0005084287641651462
[INFO] postSolveP: 38.595 [ms]
smoothSolver:  Solving for nuTilda, Initial residual = 0.02333061154331698, Final residual = 0.001397617757703496, No Iterations 3
[INFO] TimeStep: 2737.147 [ms]
ExecutionTime = 131.42 s  ClockTime = 132 s

Time = 35

velocityDampingConstraint velocityDamping damped 0 (0%) of cells, with max limit 300
[INFO] MatrixAssemblyU: 836.085 [ms]
smoothSolver:  Solving for Ux, Initial residual = 0.01110239561145878, Final residual = 0.001092453442528324, No Iterations 12
smoothSolver:  Solving for Uy, Initial residual = 0.06178338609034351, Final residual = 0.00526159544507528, No Iterations 13
smoothSolver:  Solving for Uz, Initial residual = 0.05706893487954525, Final residual = 0.005619231110473402, No Iterations 12
[INFO] MomentumPredictor: 727.968 [ms]
[INFO] MatrixAssemblyPI: 158.424 [ms]
[INFO] MatrixAssemblyPII: 75.57599999999999 [ms]
GAMG:  Solving for p, Initial residual = 0.0536693292238647, Final residual = 0.0005133489380611617, No Iterations 5
[INFO] SolveP: 387.384 [ms]
time step continuity errors : sum local = 0.005041797919250743, global = 3.679278565039148e-05, cumulative = 0.0005452215498155376
[INFO] postSolveP: 39.212 [ms]
smoothSolver:  Solving for nuTilda, Initial residual = 0.01503836988250995, Final residual = 0.001386771163826586, No Iterations 3
[INFO] TimeStep: 2757.672 [ms]
ExecutionTime = 134.82 s  ClockTime = 135 s

Time = 36

velocityDampingConstraint velocityDamping damped 0 (0%) of cells, with max limit 300
[INFO] MatrixAssemblyU: 834.546 [ms]
smoothSolver:  Solving for Ux, Initial residual = 0.01138445046717003, Final residual = 0.001115135061809526, No Iterations 12
smoothSolver:  Solving for Uy, Initial residual = 0.0638230492776425, Final residual = 0.00552358052597069, No Iterations 13
smoothSolver:  Solving for Uz, Initial residual = 0.05978606694281802, Final residual = 0.005891823691012661, No Iterations 12
[INFO] MomentumPredictor: 727.003 [ms]
[INFO] MatrixAssemblyPI: 157.678 [ms]
[INFO] MatrixAssemblyPII: 74.199 [ms]
GAMG:  Solving for p, Initial residual = 0.05508407440756422, Final residual = 0.0004883442121164879, No Iterations 5
[INFO] SolveP: 387.134 [ms]
time step continuity errors : sum local = 0.004829594041584177, global = 3.69008669317714e-05, cumulative = 0.000582122416747309
[INFO] postSolveP: 38.804 [ms]
smoothSolver:  Solving for nuTilda, Initial residual = 0.02189640746601458, Final residual = 0.001311125039821617, No Iterations 3
[INFO] TimeStep: 2753.396 [ms]
ExecutionTime = 138.2 s  ClockTime = 139 s

Time = 37

velocityDampingConstraint velocityDamping damped 0 (0%) of cells, with max limit 300
[INFO] MatrixAssemblyU: 837.013 [ms]
smoothSolver:  Solving for Ux, Initial residual = 0.01159918561493437, Final residual = 0.00114138685976434, No Iterations 12
smoothSolver:  Solving for Uy, Initial residual = 0.06562266825784907, Final residual = 0.00577328189320778, No Iterations 13
smoothSolver:  Solving for Uz, Initial residual = 0.06238501592783219, Final residual = 0.006116713438631947, No Iterations 12
[INFO] MomentumPredictor: 728.357 [ms]
[INFO] MatrixAssemblyPI: 157.737 [ms]
[INFO] MatrixAssemblyPII: 75.83199999999999 [ms]
GAMG:  Solving for p, Initial residual = 0.05689157658336102, Final residual = 0.0004703990920484652, No Iterations 5
[INFO] SolveP: 385.937 [ms]
time step continuity errors : sum local = 0.004684383486960699, global = 3.822988361910494e-05, cumulative = 0.0006203523003664139
[INFO] postSolveP: 38.76 [ms]
smoothSolver:  Solving for nuTilda, Initial residual = 0.01421722887095681, Final residual = 0.001299119780136283, No Iterations 3
[INFO] TimeStep: 2754.245 [ms]
ExecutionTime = 141.58 s  ClockTime = 142 s

Time = 38

velocityDampingConstraint velocityDamping damped 0 (0%) of cells, with max limit 300
[INFO] MatrixAssemblyU: 833.76 [ms]
smoothSolver:  Solving for Ux, Initial residual = 0.01191236347609184, Final residual = 0.001164024623574647, No Iterations 12
smoothSolver:  Solving for Uy, Initial residual = 0.06713828488909665, Final residual = 0.005960530723261811, No Iterations 13
smoothSolver:  Solving for Uz, Initial residual = 0.06510572768265785, Final residual = 0.006312224271127814, No Iterations 12
[INFO] MomentumPredictor: 725.788 [ms]
[INFO] MatrixAssemblyPI: 159.011 [ms]
[INFO] MatrixAssemblyPII: 75.318 [ms]
GAMG:  Solving for p, Initial residual = 0.05769373282220519, Final residual = 0.0004842965836913824, No Iterations 5
[INFO] SolveP: 386.51 [ms]
time step continuity errors : sum local = 0.004848770268049717, global = 2.940107052720017e-05, cumulative = 0.0006497533708936141
[INFO] postSolveP: 38.624 [ms]
smoothSolver:  Solving for nuTilda, Initial residual = 0.02063864019156598, Final residual = 0.001234788237654315, No Iterations 3
[INFO] TimeStep: 2750.221 [ms]
ExecutionTime = 144.97 s  ClockTime = 145 s

Time = 39

velocityDampingConstraint velocityDamping damped 0 (0%) of cells, with max limit 300
[INFO] MatrixAssemblyU: 833.1900000000001 [ms]
smoothSolver:  Solving for Ux, Initial residual = 0.01199903452501001, Final residual = 0.001176517298913364, No Iterations 12
smoothSolver:  Solving for Uy, Initial residual = 0.06859601102234629, Final residual = 0.006127098138969077, No Iterations 13
smoothSolver:  Solving for Uz, Initial residual = 0.06754083604899661, Final residual = 0.006526933427367285, No Iterations 12
[INFO] MomentumPredictor: 727.33 [ms]
[INFO] MatrixAssemblyPI: 158.06 [ms]
[INFO] MatrixAssemblyPII: 75.45999999999999 [ms]
GAMG:  Solving for p, Initial residual = 0.05785843158817067, Final residual = 0.0005024727773447946, No Iterations 5
[INFO] SolveP: 386.795 [ms]
time step continuity errors : sum local = 0.005049618415295326, global = 2.045271169383818e-05, cumulative = 0.0006702060825874523
[INFO] postSolveP: 39.263 [ms]
smoothSolver:  Solving for nuTilda, Initial residual = 0.01349369341531522, Final residual = 0.001224543232850824, No Iterations 3
[INFO] TimeStep: 2751.399 [ms]
ExecutionTime = 148.35 s  ClockTime = 149 s

Time = 40

velocityDampingConstraint velocityDamping damped 0 (0%) of cells, with max limit 300
[INFO] MatrixAssemblyU: 837.605 [ms]
smoothSolver:  Solving for Ux, Initial residual = 0.01213402428136945, Final residual = 0.001186285252986588, No Iterations 12
smoothSolver:  Solving for Uy, Initial residual = 0.06970449442452016, Final residual = 0.006282681931153179, No Iterations 13
smoothSolver:  Solving for Uz, Initial residual = 0.06927154403204887, Final residual = 0.006754102319058493, No Iterations 12
[INFO] MomentumPredictor: 727.052 [ms]
[INFO] MatrixAssemblyPI: 156.615 [ms]
[INFO] MatrixAssemblyPII: 75.63 [ms]
GAMG:  Solving for p, Initial residual = 0.05802197907420271, Final residual = 0.0005073989876273081, No Iterations 5
[INFO] SolveP: 391.53 [ms]
time step continuity errors : sum local = 0.005103704451892889, global = 6.606153336908384e-06, cumulative = 0.0006768122359243607
[INFO] postSolveP: 38.904 [ms]
smoothSolver:  Solving for nuTilda, Initial residual = 0.01952760573978392, Final residual = 0.001170175546328042, No Iterations 3
[INFO] TimeStep: 2758.69 [ms]
ExecutionTime = 151.74 s  ClockTime = 152 s

Time = 41

velocityDampingConstraint velocityDamping damped 0 (0%) of cells, with max limit 300
[INFO] MatrixAssemblyU: 831.203 [ms]
smoothSolver:  Solving for Ux, Initial residual = 0.01205616546979886, Final residual = 0.001194003086864694, No Iterations 12
smoothSolver:  Solving for Uy, Initial residual = 0.07026345846489171, Final residual = 0.006429046917207235, No Iterations 13
smoothSolver:  Solving for Uz, Initial residual = 0.07033896535920459, Final residual = 0.006943052290719302, No Iterations 12
[INFO] MomentumPredictor: 728.67 [ms]
[INFO] MatrixAssemblyPI: 158.215 [ms]
[INFO] MatrixAssemblyPII: 75.55 [ms]
GAMG:  Solving for p, Initial residual = 0.05748501870757572, Final residual = 0.000476294044969627, No Iterations 5
[INFO] SolveP: 387.818 [ms]
time step continuity errors : sum local = 0.00479155493243225, global = -3.560085622484355e-06, cumulative = 0.0006732521503018764
[INFO] postSolveP: 38.794 [ms]
smoothSolver:  Solving for nuTilda, Initial residual = 0.01288147581518769, Final residual = 0.001161925242194923, No Iterations 3
[INFO] TimeStep: 2752.837 [ms]
ExecutionTime = 155.12 s  ClockTime = 156 s

Time = 42

velocityDampingConstraint velocityDamping damped 0 (0%) of cells, with max limit 300
[INFO] MatrixAssemblyU: 834.9930000000001 [ms]
smoothSolver:  Solving for Ux, Initial residual = 0.01209842901095635, Final residual = 0.001200241375473386, No Iterations 12
smoothSolver:  Solving for Uy, Initial residual = 0.07075194637023291, Final residual = 0.006610981066736994, No Iterations 13
smoothSolver:  Solving for Uz, Initial residual = 0.07086529672159002, Final residual = 0.006044458448503424, No Iterations 13
[INFO] MomentumPredictor: 742.471 [ms]
[INFO] MatrixAssemblyPI: 157.26 [ms]
[INFO] MatrixAssemblyPII: 74.962 [ms]
GAMG:  Solving for p, Initial residual = 0.05715324650850406, Final residual = 0.0004549127020641304, No Iterations 5
[INFO] SolveP: 389 [ms]
time step continuity errors : sum local = 0.004568017496012022, global = -1.482770276872649e-05, cumulative = 0.0006584244475331499
[INFO] postSolveP: 38.804 [ms]
smoothSolver:  Solving for nuTilda, Initial residual = 0.01852576214242882, Final residual = 0.001114573325681054, No Iterations 3
[INFO] TimeStep: 2772.173 [ms]
ExecutionTime = 158.52 s  ClockTime = 159 s

Time = 43

velocityDampingConstraint velocityDamping damped 0 (0%) of cells, with max limit 300
[INFO] MatrixAssemblyU: 833.477 [ms]
smoothSolver:  Solving for Ux, Initial residual = 0.0120048752182179, Final residual = 0.001028188236984344, No Iterations 13
smoothSolver:  Solving for Uy, Initial residual = 0.07149552327443724, Final residual = 0.006827686374932179, No Iterations 13
smoothSolver:  Solving for Uz, Initial residual = 0.07054771936655325, Final residual = 0.006129826098524133, No Iterations 13
[INFO] MomentumPredictor: 757.449 [ms]
[INFO] MatrixAssemblyPI: 158.24 [ms]
[INFO] MatrixAssemblyPII: 75.94 [ms]
GAMG:  Solving for p, Initial residual = 0.05650184430641418, Final residual = 0.000457727969220745, No Iterations 5
[INFO] SolveP: 388.367 [ms]
time step continuity errors : sum local = 0.004575089019597138, global = -2.373378865385948e-05, cumulative = 0.0006346906588792904
[INFO] postSolveP: 39.04 [ms]
smoothSolver:  Solving for nuTilda, Initial residual = 0.01235273683382807, Final residual = 0.001105477624905756, No Iterations 3
[INFO] TimeStep: 2783.723 [ms]
ExecutionTime = 161.94 s  ClockTime = 162 s

Time = 44

velocityDampingConstraint velocityDamping damped 0 (0%) of cells, with max limit 300
[INFO] MatrixAssemblyU: 835.1799999999999 [ms]
smoothSolver:  Solving for Ux, Initial residual = 0.01202472183649229, Final residual = 0.001036715191294341, No Iterations 13
smoothSolver:  Solving for Uy, Initial residual = 0.07194250472495931, Final residual = 0.007025254795981252, No Iterations 13
smoothSolver:  Solving for Uz, Initial residual = 0.06997720578934628, Final residual = 0.006205232386563755, No Iterations 13
[INFO] MomentumPredictor: 757.6369999999999 [ms]
[INFO] MatrixAssemblyPI: 158.295 [ms]
[INFO] MatrixAssemblyPII: 75.801 [ms]
GAMG:  Solving for p, Initial residual = 0.05594502663931421, Final residual = 0.0004743342169274966, No Iterations 5
[INFO] SolveP: 386.658 [ms]
time step continuity errors : sum local = 0.004695885421377732, global = -1.929126201037504e-05, cumulative = 0.0006153993968689153
[INFO] postSolveP: 38.764 [ms]
smoothSolver:  Solving for nuTilda, Initial residual = 0.01757887528354435, Final residual = 0.001062437028794566, No Iterations 3
[INFO] TimeStep: 2784.039 [ms]
ExecutionTime = 165.35 s  ClockTime = 166 s

Time = 45

velocityDampingConstraint velocityDamping damped 0 (0%) of cells, with max limit 300
[INFO] MatrixAssemblyU: 830.783 [ms]
smoothSolver:  Solving for Ux, Initial residual = 0.01189264490321663, Final residual = 0.001045097595527871, No Iterations 13
smoothSolver:  Solving for Uy, Initial residual = 0.07203730824055402, Final residual = 0.007148588484660498, No Iterations 13
smoothSolver:  Solving for Uz, Initial residual = 0.06914778712680972, Final residual = 0.006262682467597675, No Iterations 13
[INFO] MomentumPredictor: 759.332 [ms]
[INFO] MatrixAssemblyPI: 158.203 [ms]
[INFO] MatrixAssemblyPII: 75.76900000000001 [ms]
GAMG:  Solving for p, Initial residual = 0.05554828557719905, Final residual = 0.0004795308664750523, No Iterations 5
[INFO] SolveP: 388.854 [ms]
time step continuity errors : sum local = 0.004680296775214496, global = -7.028048969268289e-06, cumulative = 0.000608371347899647
[INFO] postSolveP: 38.768 [ms]
smoothSolver:  Solving for nuTilda, Initial residual = 0.01180844009859036, Final residual = 0.001051442612337656, No Iterations 3
[INFO] TimeStep: 2781.799 [ms]
ExecutionTime = 168.76 s  ClockTime = 169 s

Time = 46

velocityDampingConstraint velocityDamping damped 0 (0%) of cells, with max limit 300
[INFO] MatrixAssemblyU: 833.552 [ms]
smoothSolver:  Solving for Ux, Initial residual = 0.01176238668343834, Final residual = 0.001048243545620541, No Iterations 13
smoothSolver:  Solving for Uy, Initial residual = 0.07198433973868565, Final residual = 0.006158786961772144, No Iterations 14
smoothSolver:  Solving for Uz, Initial residual = 0.06791828647514651, Final residual = 0.006313367601439225, No Iterations 13
[INFO] MomentumPredictor: 776.397 [ms]
[INFO] MatrixAssemblyPI: 158.024 [ms]
[INFO] MatrixAssemblyPII: 74.459 [ms]
GAMG:  Solving for p, Initial residual = 0.05485852374505, Final residual = 0.0004703983770979119, No Iterations 5
[INFO] SolveP: 386.864 [ms]
time step continuity errors : sum local = 0.004545424193186921, global = 7.445829507859291e-06, cumulative = 0.0006158171774075064
[INFO] postSolveP: 38.415 [ms]
smoothSolver:  Solving for nuTilda, Initial residual = 0.01668863421116508, Final residual = 0.001013158575671629, No Iterations 3
[INFO] TimeStep: 2802.061 [ms]
ExecutionTime = 172.19 s  ClockTime = 173 s

Time = 47

velocityDampingConstraint velocityDamping damped 0 (0%) of cells, with max limit 300
[INFO] MatrixAssemblyU: 834.838 [ms]
smoothSolver:  Solving for Ux, Initial residual = 0.01151726916317782, Final residual = 0.001052778506045824, No Iterations 13
smoothSolver:  Solving for Uy, Initial residual = 0.07162052953841685, Final residual = 0.00615867542092381, No Iterations 14
smoothSolver:  Solving for Uz, Initial residual = 0.06660434242168096, Final residual = 0.006356822640997795, No Iterations 13
[INFO] MomentumPredictor: 774.962 [ms]
[INFO] MatrixAssemblyPI: 158.113 [ms]
[INFO] MatrixAssemblyPII: 75.69 [ms]
GAMG:  Solving for p, Initial residual = 0.05412269474874871, Final residual = 0.0004652078083250676, No Iterations 5
[INFO] SolveP: 387.015 [ms]
time step continuity errors : sum local = 0.004466713846274352, global = 2.315688808762439e-05, cumulative = 0.0006389740654951307
[INFO] postSolveP: 39.365 [ms]
smoothSolver:  Solving for nuTilda, Initial residual = 0.01127764570243512, Final residual = 0.001003507298213581, No Iterations 3
[INFO] TimeStep: 2797.958 [ms]
ExecutionTime = 175.61 s  ClockTime = 176 s

Time = 48

velocityDampingConstraint velocityDamping damped 0 (0%) of cells, with max limit 300
[INFO] MatrixAssemblyU: 835.275 [ms]
smoothSolver:  Solving for Ux, Initial residual = 0.01147221975724368, Final residual = 0.00105823200145424, No Iterations 13
smoothSolver:  Solving for Uy, Initial residual = 0.0712749886537193, Final residual = 0.006154581022995334, No Iterations 14
smoothSolver:  Solving for Uz, Initial residual = 0.06544289938448124, Final residual = 0.006355355417418965, No Iterations 13
[INFO] MomentumPredictor: 777.655 [ms]
[INFO] MatrixAssemblyPI: 157.667 [ms]
[INFO] MatrixAssemblyPII: 74.617 [ms]
GAMG:  Solving for p, Initial residual = 0.05330061050693073, Final residual = 0.0004696282200149773, No Iterations 5
[INFO] SolveP: 390.167 [ms]
time step continuity errors : sum local = 0.004478581041679652, global = 2.390664771220546e-05, cumulative = 0.0006628807132073362
[INFO] postSolveP: 38.515 [ms]
smoothSolver:  Solving for nuTilda, Initial residual = 0.01589598298067004, Final residual = 0.0009717130311012657, No Iterations 3
[INFO] TimeStep: 2805.567 [ms]
ExecutionTime = 179.05 s  ClockTime = 180 s

Time = 49

velocityDampingConstraint velocityDamping damped 0 (0%) of cells, with max limit 300
[INFO] MatrixAssemblyU: 830.92 [ms]
smoothSolver:  Solving for Ux, Initial residual = 0.01136892768550237, Final residual = 0.001062331051820793, No Iterations 13
smoothSolver:  Solving for Uy, Initial residual = 0.07065056639507479, Final residual = 0.006133418064256316, No Iterations 14
smoothSolver:  Solving for Uz, Initial residual = 0.06442996312260962, Final residual = 0.006337310628074085, No Iterations 13
[INFO] MomentumPredictor: 777.878 [ms]
[INFO] MatrixAssemblyPI: 157.991 [ms]
[INFO] MatrixAssemblyPII: 74.07299999999999 [ms]
GAMG:  Solving for p, Initial residual = 0.05263748577897898, Final residual = 0.0004792654913284097, No Iterations 5
[INFO] SolveP: 388.358 [ms]
time step continuity errors : sum local = 0.004540563043589748, global = 1.561369165279014e-05, cumulative = 0.0006784944048601263
[INFO] postSolveP: 39.191 [ms]
smoothSolver:  Solving for nuTilda, Initial residual = 0.01082815649405794, Final residual = 0.0009656042871831732, No Iterations 3
[INFO] TimeStep: 2799.274 [ms]
ExecutionTime = 182.48 s  ClockTime = 183 s

Time = 50

velocityDampingConstraint velocityDamping damped 0 (0%) of cells, with max limit 300
[INFO] MatrixAssemblyU: 836.329 [ms]
smoothSolver:  Solving for Ux, Initial residual = 0.01137236624767862, Final residual = 0.001063626151815231, No Iterations 13
smoothSolver:  Solving for Uy, Initial residual = 0.06969247235680609, Final residual = 0.0060685714955452, No Iterations 14
smoothSolver:  Solving for Uz, Initial residual = 0.06349469657314465, Final residual = 0.006306106985936814, No Iterations 13
[INFO] MomentumPredictor: 775.597 [ms]
[INFO] MatrixAssemblyPI: 157.412 [ms]
[INFO] MatrixAssemblyPII: 74.214 [ms]
GAMG:  Solving for p, Initial residual = 0.05241052363970745, Final residual = 0.0004880643072397028, No Iterations 5
[INFO] SolveP: 386.336 [ms]
time step continuity errors : sum local = 0.004589818540411201, global = 3.62589377348164e-07, cumulative = 0.0006788569942374745
[INFO] postSolveP: 38.686 [ms]
smoothSolver:  Solving for nuTilda, Initial residual = 0.01520851292630948, Final residual = 0.0009393670140207466, No Iterations 3
[INFO] TimeStep: 2801.36 [ms]
ExecutionTime = 185.91 s  ClockTime = 187 s

End

Finalising parallel run
