/*---------------------------------------------------------------------------*\
| =========                 |                                                 |
| \\      /  F ield         | OpenFOAM: The Open Source CFD Toolbox           |
|  \\    /   O peration     | Version:  2306                                  |
|   \\  /    A nd           | Website:  www.openfoam.com                      |
|    \\/     M anipulation  |                                                 |
\*---------------------------------------------------------------------------*/
Build  : c423ebec-20231012 OPENFOAM=2306 version=v2306
Arch   : "LSB;label=32;scalar=64"
Exec   : icoFoam -parallel -case /hkfs/work/workspace/scratch/eq4036-l3d/workspace/87e447ac8db9a473a6b742d9f6111523/case
Date   : Dec 30 2023
Time   : 09:30:15
Host   : hkn0706.localdomain
PID    : 1140636
I/O    : uncollated
Case   : /hkfs/work/workspace/scratch/eq4036-l3d/workspace/87e447ac8db9a473a6b742d9f6111523/case
nProcs : 4
Hosts  :
(
    (hkn0706.localdomain 4)
)
Pstream initialized with:
    floatTransfer      : false
    nProcsSimpleSum    : 0
    nonBlockingExchange: 0 (tuning: 0)
    exchange algorithm : -1
    commsType          : nonBlocking
    polling iterations : 0
trapFpe: Floating point exception trapping enabled (FOAM_SIGFPE).
fileModificationChecking : Monitoring run-time modified files using timeStampMaster (fileModificationSkew 5, maxFileModificationPolls 20)
allowSystemOperations : Allowing user-supplied system call operations

// * * * * * * * * * * * * * * * * * * * * * * * * * * * * * * * * * * * * * //
Create time

--> FOAM Warning : 
    From void* Foam::dlLibraryTable::openLibrary(const Foam::fileName&, bool)
    in file db/dynamicLibrary/dlLibraryTable/dlLibraryTable.C at line 188
    Could not load "libpetscFoam.so"
libpetscFoam.so: cannot open shared object file: No such file or directory
Create mesh for time = 0


PISO: Operating solver in PISO mode

Reading transportProperties

Reading field p

Reading field U

Reading/calculating face flux field phi


Starting time loop

Time = 0.0005

Courant Number mean: 8.62851e-18 max: 8.67362e-15
[INFO] MatrixAssemblyU: 44.715 [ms]
DILUPBiCGStab:  Solving for Ux, Initial residual = 1, Final residual = 0.00219478, No Iterations 5
DILUPBiCGStab:  Solving for Uy:  solution singularity
DILUPBiCGStab:  Solving for Uz:  solution singularity
[INFO] MomentumPredictor: 163.311 [ms]
[INFO] MatrixAssemblyPI: 39.038 [ms]
[INFO] AdjustPhi: 1.809 [ms]
[INFO] ConstrainPressure: 0.004 [ms]
[INFO] MatrixAssemblyPII: 12.023 [ms]
[OGL LOG][lduLduBase.H:119] Initialising OGL
	OGL commit:  a2fc0ff+
	Branch: feat/on_device_permute 
	Build type: Release
	Ginkgo version: 1.7.0 ( develop)
	Ginkgo commit: sparse-communicator
	MPI is GPU aware: 1
	Forces host buffer based communication: 0
	CPU ranks per GPU: 1
	Matrix format: Ell
	End OGL_INFO
[OGL LOG][Proc: 0]: global_index_init: 5.779 [ms]
[OGL LOG][Proc: 0]p_local_cols: call_init: 1.373 [ms]
[OGL LOG][Proc: 0]p_local_rows: call_init: 0.866 [ms]
[OGL LOG][Proc: 0]p_local_ldu_map: call_init: 1.334 [ms]
[OGL LOG][Proc: 0]p_local_coeffs: call_init: 4.72 [ms]
[OGL LOG][Proc: 0]p_non_local_cols: call_init: 1.087 [ms]
[OGL LOG][Proc: 0]p_non_local_rows: call_init: 1.523 [ms]
[OGL LOG][Proc: 0]p_non_local_ldu_map: call_init: 1.721 [ms]
[OGL LOG][Proc: 0]p_non_local_coeffs: call_init: 0.954 [ms]
[OGL LOG][Proc: 0]p: init_local_sparsity_pattern: 67.805 [ms]
[OGL LOG][Proc: 0]p: init_non_local_sparsity_pattern: 2.749 [ms]
[OGL LOG][Proc: 0]p: update_local_matrix_data: 56.576 [ms]
[OGL LOG][Proc: 0]p: update_non_local_matrix_data: 0.065 [ms]
[OGL LOG][Proc: 0]device_partition: call_init: 1.361 [ms]
[OGL LOG][Proc: 0]p_matrix: call_init: 22.661 [ms]
[OGL LOG][Proc: 0]p_rhs: call_init: 1.687 [ms]
[OGL LOG][Proc: 0]p_solution: call_init: 1.648 [ms]
[OGL LOG][Proc: 0]p: init_precond: 0.904 [ms]
[OGL LOG][StoppingCriterion.H:237] Creating stopping criterion with minIter 0 frequency 1
[OGL LOG][Proc: 0]p: generate_solver: 0.032 [ms]
[OGL LOG][Proc: 0]p: solve: 275.185 [ms]
[OGL LOG][Proc: 0]p: copy_x_back: 0.607 [ms]
[OGL LOG][lduLduBase.H:330] 
Statistics:
	Time per iteration: 346 [mu s]
	Time per residual norm calculation: 3269.000000 [mu s]
	Time per iteration and DOF: 0.346000 [ns]
	Retrieve results bandwidth 3.294000 [GByte/s]
[OGL LOG][Proc: 0]p: solve_multi_gpu: 305.404 [ms]
nonecudaGKOCG:  Solving for p, Initial residual = 1, Final residual = 9.71008e-05, No Iterations 794
[INFO] SolveP: 1156.37 [ms]
time step continuity errors : sum local = 2.05487e-08, global = -3.33362e-21, cumulative = -3.33362e-21
[INFO] ContinuityError: 5.174 [ms]
[INFO] CorrectBoundary: 0.815 [ms]
[INFO] PISOStep: 1229.03 [ms]
[INFO] MatrixAssemblyPI: 39.815 [ms]
[INFO] AdjustPhi: 1.865 [ms]
[INFO] ConstrainPressure: 0.002 [ms]
[INFO] MatrixAssemblyPII: 13.003 [ms]
[OGL LOG][Proc: 0]: global_index_init: 0.673 [ms]
[OGL LOG][Proc: 0]p_local_coeffs: call_update: 0.001 [ms]
[OGL LOG][Proc: 0]p_non_local_coeffs: call_update: 0 [ms]
[OGL LOG][Proc: 0]p: update_local_matrix_data: 6.993 [ms]
[OGL LOG][Proc: 0]p: update_non_local_matrix_data: 0.082 [ms]
[OGL LOG][Proc: 0]p: regenerate_distributed_matrix: 26.469 [ms]
[OGL LOG][Proc: 0]p_matrix: call_update: 35.991 [ms]
[OGL LOG][Proc: 0]p_rhs: call_update: 0.709 [ms]
[OGL LOG][Proc: 0]p: init_precond: 0.029 [ms]
[OGL LOG][StoppingCriterion.H:237] Creating stopping criterion with minIter 0 frequency 1
[OGL LOG][Proc: 0]p: generate_solver: 0.002 [ms]
[OGL LOG][Proc: 0]p: solve: 239.678 [ms]
[OGL LOG][Proc: 0]p: copy_x_back: 0.723 [ms]
[OGL LOG][lduLduBase.H:330] 
Statistics:
	Time per iteration: 306 [mu s]
	Time per residual norm calculation: 93.000000 [mu s]
	Time per iteration and DOF: 0.306000 [ns]
	Retrieve results bandwidth 2.766000 [GByte/s]
[OGL LOG][Proc: 0]p: solve_multi_gpu: 278.776 [ms]
nonecudaGKOCG:  Solving for p, Initial residual = 0.729634, Final residual = 9.93919e-05, No Iterations 782
[INFO] SolveP: 288.188 [ms]
time step continuity errors : sum local = 2.78654e-08, global = -1.16098e-21, cumulative = -4.4946e-21
[INFO] ContinuityError: 6.816 [ms]
[INFO] CorrectBoundary: 0.838 [ms]
[INFO] PISOStep: 368.985 [ms]
[INFO] TimeStep: 1812.34 [ms]
ExecutionTime = 1.88 s  ClockTime = 2 s

Time = 0.001

Courant Number mean: 0.0215477 max: 0.377117
[INFO] MatrixAssemblyU: 34.879 [ms]
DILUPBiCGStab:  Solving for Ux, Initial residual = 0.15039, Final residual = 0.000954846, No Iterations 5
DILUPBiCGStab:  Solving for Uy, Initial residual = 0.368081, Final residual = 0.00158139, No Iterations 5
DILUPBiCGStab:  Solving for Uz, Initial residual = 0.988658, Final residual = 0.00437291, No Iterations 5
[INFO] MomentumPredictor: 291.717 [ms]
[INFO] MatrixAssemblyPI: 36.196 [ms]
[INFO] AdjustPhi: 1.723 [ms]
[INFO] ConstrainPressure: 0.003 [ms]
[INFO] MatrixAssemblyPII: 11.633 [ms]
[OGL LOG][Proc: 0]: global_index_init: 0.007 [ms]
[OGL LOG][Proc: 0]p_local_coeffs: call_update: 0 [ms]
[OGL LOG][Proc: 0]p_non_local_coeffs: call_update: 0 [ms]
[OGL LOG][Proc: 0]p: update_local_matrix_data: 6.44 [ms]
[OGL LOG][Proc: 0]p: update_non_local_matrix_data: 0.061 [ms]
[OGL LOG][Proc: 0]p: regenerate_distributed_matrix: 27.362 [ms]
[OGL LOG][Proc: 0]p_matrix: call_update: 27.861 [ms]
[OGL LOG][Proc: 0]p_rhs: call_update: 0.234 [ms]
[OGL LOG][Proc: 0]p: init_precond: 0.025 [ms]
[OGL LOG][StoppingCriterion.H:237] Creating stopping criterion with minIter 469 frequency 10
[OGL LOG][Proc: 0]p: generate_solver: 0.001 [ms]
[OGL LOG][Proc: 0]p: solve: 167.037 [ms]
[OGL LOG][Proc: 0]p: copy_x_back: 0.575 [ms]
[OGL LOG][lduLduBase.H:330] 
Statistics:
	Time per iteration: 213 [mu s]
	Time per residual norm calculation: 88.000000 [mu s]
	Time per iteration and DOF: 0.213000 [ns]
	Retrieve results bandwidth 3.478000 [GByte/s]
[OGL LOG][Proc: 0]p: solve_multi_gpu: 196.792 [ms]
nonecudaGKOCG:  Solving for p, Initial residual = 0.687245, Final residual = 7.58612e-05, No Iterations 781
[INFO] SolveP: 204.838 [ms]
time step continuity errors : sum local = 2.38036e-08, global = -1.41863e-21, cumulative = -5.91323e-21
[INFO] ContinuityError: 4.461 [ms]
[INFO] CorrectBoundary: 0.106 [ms]
[INFO] PISOStep: 272.662 [ms]
[INFO] MatrixAssemblyPI: 34.487 [ms]
[INFO] AdjustPhi: 1.735 [ms]
[INFO] ConstrainPressure: 0.002 [ms]
[INFO] MatrixAssemblyPII: 11.212 [ms]
[OGL LOG][Proc: 0]: global_index_init: 0.007 [ms]
[OGL LOG][Proc: 0]p_local_coeffs: call_update: 0 [ms]
[OGL LOG][Proc: 0]p_non_local_coeffs: call_update: 0 [ms]
[OGL LOG][Proc: 0]p: update_local_matrix_data: 6.417 [ms]
[OGL LOG][Proc: 0]p: update_non_local_matrix_data: 0.064 [ms]
[OGL LOG][Proc: 0]p: regenerate_distributed_matrix: 24.927 [ms]
[OGL LOG][Proc: 0]p_matrix: call_update: 25.465 [ms]
[OGL LOG][Proc: 0]p_rhs: call_update: 0.506 [ms]
[OGL LOG][Proc: 0]p: init_precond: 0.027 [ms]
[OGL LOG][StoppingCriterion.H:237] Creating stopping criterion with minIter 468 frequency 12
[OGL LOG][Proc: 0]p: generate_solver: 0.001 [ms]
[OGL LOG][Proc: 0]p: solve: 168.488 [ms]
[OGL LOG][Proc: 0]p: copy_x_back: 0.524 [ms]
[OGL LOG][lduLduBase.H:330] 
Statistics:
	Time per iteration: 215 [mu s]
	Time per residual norm calculation: 88.000000 [mu s]
	Time per iteration and DOF: 0.215000 [ns]
	Retrieve results bandwidth 3.816000 [GByte/s]
[OGL LOG][Proc: 0]p: solve_multi_gpu: 195.53 [ms]
nonecudaGKOCG:  Solving for p, Initial residual = 0.616543, Final residual = 6.82702e-05, No Iterations 781
[INFO] SolveP: 204.317 [ms]
time step continuity errors : sum local = 2.18467e-08, global = 4.92689e-23, cumulative = -5.86396e-21
[INFO] ContinuityError: 6.35 [ms]
[INFO] CorrectBoundary: 0.808 [ms]
[INFO] PISOStep: 272.826 [ms]
[INFO] TimeStep: 876.911 [ms]
ExecutionTime = 2.75 s  ClockTime = 3 s

Time = 0.0015

Courant Number mean: 0.0325127 max: 0.441263
[INFO] MatrixAssemblyU: 31.352 [ms]
DILUPBiCGStab:  Solving for Ux, Initial residual = 0.0530825, Final residual = 0.00027897, No Iterations 5
DILUPBiCGStab:  Solving for Uy, Initial residual = 0.124538, Final residual = 0.000364487, No Iterations 5
DILUPBiCGStab:  Solving for Uz, Initial residual = 0.576586, Final residual = 0.00240943, No Iterations 5
[INFO] MomentumPredictor: 292.345 [ms]
[INFO] MatrixAssemblyPI: 38.751 [ms]
[INFO] AdjustPhi: 1.759 [ms]
[INFO] ConstrainPressure: 0.002 [ms]
[INFO] MatrixAssemblyPII: 12.012 [ms]
[OGL LOG][Proc: 0]: global_index_init: 0.026 [ms]
[OGL LOG][Proc: 0]p_local_coeffs: call_update: 0 [ms]
[OGL LOG][Proc: 0]p_non_local_coeffs: call_update: 0 [ms]
[OGL LOG][Proc: 0]p: update_local_matrix_data: 6.826 [ms]
[OGL LOG][Proc: 0]p: update_non_local_matrix_data: 0.079 [ms]
[OGL LOG][Proc: 0]p: regenerate_distributed_matrix: 27.306 [ms]
[OGL LOG][Proc: 0]p_matrix: call_update: 27.78 [ms]
[OGL LOG][Proc: 0]p_rhs: call_update: 0.311 [ms]
[OGL LOG][Proc: 0]p: init_precond: 0.025 [ms]
[OGL LOG][StoppingCriterion.H:237] Creating stopping criterion with minIter 468 frequency 12
[OGL LOG][Proc: 0]p: generate_solver: 0.001 [ms]
[OGL LOG][Proc: 0]p: solve: 164.915 [ms]
[OGL LOG][Proc: 0]p: copy_x_back: 0.801 [ms]
[OGL LOG][lduLduBase.H:330] 
Statistics:
	Time per iteration: 214 [mu s]
	Time per residual norm calculation: 96.000000 [mu s]
	Time per iteration and DOF: 0.214000 [ns]
	Retrieve results bandwidth 2.496000 [GByte/s]
[OGL LOG][Proc: 0]p: solve_multi_gpu: 194.842 [ms]
nonecudaGKOCG:  Solving for p, Initial residual = 0.630325, Final residual = 9.61336e-05, No Iterations 769
[INFO] SolveP: 203.313 [ms]
time step continuity errors : sum local = 2.18855e-08, global = -2.51806e-21, cumulative = -8.38202e-21
[INFO] ContinuityError: 4.352 [ms]
[INFO] CorrectBoundary: 0.094 [ms]
[INFO] PISOStep: 274.46 [ms]
[INFO] MatrixAssemblyPI: 35.057 [ms]
[INFO] AdjustPhi: 1.745 [ms]
[INFO] ConstrainPressure: 0.001 [ms]
[INFO] MatrixAssemblyPII: 11.29 [ms]
[OGL LOG][Proc: 0]: global_index_init: 0.011 [ms]
[OGL LOG][Proc: 0]p_local_coeffs: call_update: 0 [ms]
[OGL LOG][Proc: 0]p_non_local_coeffs: call_update: 0 [ms]
[OGL LOG][Proc: 0]p: update_local_matrix_data: 6.398 [ms]
[OGL LOG][Proc: 0]p: update_non_local_matrix_data: 0.06 [ms]
[OGL LOG][Proc: 0]p: regenerate_distributed_matrix: 22.868 [ms]
[OGL LOG][Proc: 0]p_matrix: call_update: 23.433 [ms]
[OGL LOG][Proc: 0]p_rhs: call_update: 0.359 [ms]
[OGL LOG][Proc: 0]p: init_precond: 0.022 [ms]
[OGL LOG][StoppingCriterion.H:237] Creating stopping criterion with minIter 461 frequency 12
[OGL LOG][Proc: 0]p: generate_solver: 0.001 [ms]
[OGL LOG][Proc: 0]p: solve: 165.243 [ms]
[OGL LOG][Proc: 0]p: copy_x_back: 0.586 [ms]
[OGL LOG][lduLduBase.H:330] 
Statistics:
	Time per iteration: 214 [mu s]
	Time per residual norm calculation: 89.000000 [mu s]
	Time per iteration and DOF: 0.214000 [ns]
	Retrieve results bandwidth 3.412000 [GByte/s]
[OGL LOG][Proc: 0]p: solve_multi_gpu: 190.579 [ms]
nonecudaGKOCG:  Solving for p, Initial residual = 0.578244, Final residual = 8.19763e-05, No Iterations 769
[INFO] SolveP: 198.507 [ms]
time step continuity errors : sum local = 1.81723e-08, global = 2.49815e-21, cumulative = -5.88387e-21
[INFO] ContinuityError: 4.365 [ms]
[INFO] CorrectBoundary: 0.098 [ms]
[INFO] PISOStep: 264.864 [ms]
[INFO] TimeStep: 868.422 [ms]
ExecutionTime = 3.63 s  ClockTime = 4 s

Time = 0.002

Courant Number mean: 0.0389156 max: 0.452961
[INFO] MatrixAssemblyU: 33.503 [ms]
DILUPBiCGStab:  Solving for Ux, Initial residual = 0.031877, Final residual = 0.000142417, No Iterations 5
DILUPBiCGStab:  Solving for Uy, Initial residual = 0.0813052, Final residual = 0.000240028, No Iterations 5
DILUPBiCGStab:  Solving for Uz, Initial residual = 0.274014, Final residual = 0.000884799, No Iterations 5
[INFO] MomentumPredictor: 296.25 [ms]
[INFO] MatrixAssemblyPI: 37.878 [ms]
[INFO] AdjustPhi: 2.41 [ms]
[INFO] ConstrainPressure: 0.002 [ms]
[INFO] MatrixAssemblyPII: 11.243 [ms]
[OGL LOG][Proc: 0]: global_index_init: 0.021 [ms]
[OGL LOG][Proc: 0]p_local_coeffs: call_update: 0 [ms]
[OGL LOG][Proc: 0]p_non_local_coeffs: call_update: 0 [ms]
[OGL LOG][Proc: 0]p: update_local_matrix_data: 6.258 [ms]
[OGL LOG][Proc: 0]p: update_non_local_matrix_data: 0.06 [ms]
[OGL LOG][Proc: 0]p: regenerate_distributed_matrix: 26.031 [ms]
[OGL LOG][Proc: 0]p_matrix: call_update: 26.602 [ms]
[OGL LOG][Proc: 0]p_rhs: call_update: 0.238 [ms]
[OGL LOG][Proc: 0]p: init_precond: 0.028 [ms]
[OGL LOG][StoppingCriterion.H:237] Creating stopping criterion with minIter 461 frequency 12
[OGL LOG][Proc: 0]p: generate_solver: 0.001 [ms]
[OGL LOG][Proc: 0]p: solve: 166.631 [ms]
[OGL LOG][Proc: 0]p: copy_x_back: 0.576 [ms]
[OGL LOG][lduLduBase.H:330] 
Statistics:
	Time per iteration: 216 [mu s]
	Time per residual norm calculation: 94.000000 [mu s]
	Time per iteration and DOF: 0.216000 [ns]
	Retrieve results bandwidth 3.472000 [GByte/s]
[OGL LOG][Proc: 0]p: solve_multi_gpu: 195.284 [ms]
nonecudaGKOCG:  Solving for p, Initial residual = 0.409693, Final residual = 5.54561e-05, No Iterations 769
[INFO] SolveP: 203.477 [ms]
time step continuity errors : sum local = 1.07925e-08, global = -5.3264e-21, cumulative = -1.12103e-20
[INFO] ContinuityError: 4.459 [ms]
[INFO] CorrectBoundary: 0.099 [ms]
[INFO] PISOStep: 273.752 [ms]
[INFO] MatrixAssemblyPI: 34.635 [ms]
[INFO] AdjustPhi: 1.79 [ms]
[INFO] ConstrainPressure: 0.002 [ms]
[INFO] MatrixAssemblyPII: 11.156 [ms]
[OGL LOG][Proc: 0]: global_index_init: 0.007 [ms]
[OGL LOG][Proc: 0]p_local_coeffs: call_update: 0 [ms]
[OGL LOG][Proc: 0]p_non_local_coeffs: call_update: 0 [ms]
[OGL LOG][Proc: 0]p: update_local_matrix_data: 6.516 [ms]
[OGL LOG][Proc: 0]p: update_non_local_matrix_data: 0.059 [ms]
[OGL LOG][Proc: 0]p: regenerate_distributed_matrix: 26.302 [ms]
[OGL LOG][Proc: 0]p_matrix: call_update: 26.877 [ms]
[OGL LOG][Proc: 0]p_rhs: call_update: 0.294 [ms]
[OGL LOG][Proc: 0]p: init_precond: 0.023 [ms]
[OGL LOG][StoppingCriterion.H:237] Creating stopping criterion with minIter 461 frequency 12
[OGL LOG][Proc: 0]p: generate_solver: 0.001 [ms]
[OGL LOG][Proc: 0]p: solve: 166.458 [ms]
[OGL LOG][Proc: 0]p: copy_x_back: 0.601 [ms]
[OGL LOG][lduLduBase.H:330] 
Statistics:
	Time per iteration: 216 [mu s]
	Time per residual norm calculation: 94.000000 [mu s]
	Time per iteration and DOF: 0.216000 [ns]
	Retrieve results bandwidth 3.327000 [GByte/s]
[OGL LOG][Proc: 0]p: solve_multi_gpu: 195.207 [ms]
nonecudaGKOCG:  Solving for p, Initial residual = 0.348243, Final residual = 4.70883e-05, No Iterations 769
[INFO] SolveP: 203.271 [ms]
time step continuity errors : sum local = 9.25647e-09, global = 3.73629e-21, cumulative = -7.47398e-21
[INFO] ContinuityError: 4.614 [ms]
[INFO] CorrectBoundary: 0.094 [ms]
[INFO] PISOStep: 269.699 [ms]
[INFO] TimeStep: 877.969 [ms]
ExecutionTime = 4.49 s  ClockTime = 5 s

Time = 0.0025

Courant Number mean: 0.0439692 max: 0.459636
[INFO] MatrixAssemblyU: 32.613 [ms]
DILUPBiCGStab:  Solving for Ux, Initial residual = 0.0234839, Final residual = 8.33028e-05, No Iterations 5
DILUPBiCGStab:  Solving for Uy, Initial residual = 0.0514645, Final residual = 0.000139007, No Iterations 5
DILUPBiCGStab:  Solving for Uz, Initial residual = 0.097764, Final residual = 0.000365028, No Iterations 5
[INFO] MomentumPredictor: 290.793 [ms]
[INFO] MatrixAssemblyPI: 38.623 [ms]
[INFO] AdjustPhi: 1.87 [ms]
[INFO] ConstrainPressure: 0.002 [ms]
[INFO] MatrixAssemblyPII: 12.319 [ms]
[OGL LOG][Proc: 0]: global_index_init: 0.014 [ms]
[OGL LOG][Proc: 0]p_local_coeffs: call_update: 0 [ms]
[OGL LOG][Proc: 0]p_non_local_coeffs: call_update: 0 [ms]
[OGL LOG][Proc: 0]p: update_local_matrix_data: 6.722 [ms]
[OGL LOG][Proc: 0]p: update_non_local_matrix_data: 0.094 [ms]
[OGL LOG][Proc: 0]p: regenerate_distributed_matrix: 23.428 [ms]
[OGL LOG][Proc: 0]p_matrix: call_update: 24.036 [ms]
[OGL LOG][Proc: 0]p_rhs: call_update: 0.293 [ms]
[OGL LOG][Proc: 0]p: init_precond: 0.025 [ms]
[OGL LOG][StoppingCriterion.H:237] Creating stopping criterion with minIter 461 frequency 12
[OGL LOG][Proc: 0]p: generate_solver: 0.001 [ms]
[OGL LOG][Proc: 0]p: solve: 153.946 [ms]
[OGL LOG][Proc: 0]p: copy_x_back: 0.728 [ms]
[OGL LOG][lduLduBase.H:330] 
Statistics:
	Time per iteration: 210 [mu s]
	Time per residual norm calculation: 95.000000 [mu s]
	Time per iteration and DOF: 0.210000 [ns]
	Retrieve results bandwidth 2.747000 [GByte/s]
[OGL LOG][Proc: 0]p: solve_multi_gpu: 180.034 [ms]
nonecudaGKOCG:  Solving for p, Initial residual = 0.312823, Final residual = 8.20918e-05, No Iterations 733
[INFO] SolveP: 188.393 [ms]
time step continuity errors : sum local = 1.32181e-08, global = 2.0354e-21, cumulative = -5.43858e-21
[INFO] ContinuityError: 4.252 [ms]
[INFO] CorrectBoundary: 0.102 [ms]
[INFO] PISOStep: 259.427 [ms]
[INFO] MatrixAssemblyPI: 34.51 [ms]
[INFO] AdjustPhi: 1.723 [ms]
[INFO] ConstrainPressure: 0.002 [ms]
[INFO] MatrixAssemblyPII: 11.177 [ms]
[OGL LOG][Proc: 0]: global_index_init: 0.074 [ms]
[OGL LOG][Proc: 0]p_local_coeffs: call_update: 0 [ms]
[OGL LOG][Proc: 0]p_non_local_coeffs: call_update: 0 [ms]
[OGL LOG][Proc: 0]p: update_local_matrix_data: 6.213 [ms]
[OGL LOG][Proc: 0]p: update_non_local_matrix_data: 0.058 [ms]
[OGL LOG][Proc: 0]p: regenerate_distributed_matrix: 24.877 [ms]
[OGL LOG][Proc: 0]p_matrix: call_update: 25.433 [ms]
[OGL LOG][Proc: 0]p_rhs: call_update: 0.3 [ms]
[OGL LOG][Proc: 0]p: init_precond: 0.025 [ms]
[OGL LOG][StoppingCriterion.H:237] Creating stopping criterion with minIter 439 frequency 12
[OGL LOG][Proc: 0]p: generate_solver: 0.001 [ms]
[OGL LOG][Proc: 0]p: solve: 156.304 [ms]
[OGL LOG][Proc: 0]p: copy_x_back: 0.566 [ms]
[OGL LOG][lduLduBase.H:330] 
Statistics:
	Time per iteration: 213 [mu s]
	Time per residual norm calculation: 89.000000 [mu s]
	Time per iteration and DOF: 0.213000 [ns]
	Retrieve results bandwidth 3.533000 [GByte/s]
[OGL LOG][Proc: 0]p: solve_multi_gpu: 183.97 [ms]
nonecudaGKOCG:  Solving for p, Initial residual = 0.267846, Final residual = 7.54792e-05, No Iterations 733
[INFO] SolveP: 192.661 [ms]
time step continuity errors : sum local = 1.20665e-08, global = 4.25897e-21, cumulative = -1.17962e-21
[INFO] ContinuityError: 6.012 [ms]
[INFO] CorrectBoundary: 0.684 [ms]
[INFO] PISOStep: 264.073 [ms]
[INFO] TimeStep: 851.768 [ms]
ExecutionTime = 5.35 s  ClockTime = 6 s

Time = 0.003

Courant Number mean: 0.0480092 max: 0.463875
[INFO] MatrixAssemblyU: 32.289 [ms]
DILUPBiCGStab:  Solving for Ux, Initial residual = 0.0178746, Final residual = 6.19305e-05, No Iterations 5
DILUPBiCGStab:  Solving for Uy, Initial residual = 0.0400969, Final residual = 7.40663e-05, No Iterations 5
DILUPBiCGStab:  Solving for Uz, Initial residual = 0.0850516, Final residual = 0.00027881, No Iterations 5
[INFO] MomentumPredictor: 289.534 [ms]
[INFO] MatrixAssemblyPI: 36.295 [ms]
[INFO] AdjustPhi: 1.736 [ms]
[INFO] ConstrainPressure: 0.002 [ms]
[INFO] MatrixAssemblyPII: 11.233 [ms]
[OGL LOG][Proc: 0]: global_index_init: 0.016 [ms]
[OGL LOG][Proc: 0]p_local_coeffs: call_update: 0 [ms]
[OGL LOG][Proc: 0]p_non_local_coeffs: call_update: 0 [ms]
[OGL LOG][Proc: 0]p: update_local_matrix_data: 6.232 [ms]
[OGL LOG][Proc: 0]p: update_non_local_matrix_data: 0.06 [ms]
[OGL LOG][Proc: 0]p: regenerate_distributed_matrix: 24.715 [ms]
[OGL LOG][Proc: 0]p_matrix: call_update: 25.193 [ms]
[OGL LOG][Proc: 0]p_rhs: call_update: 0.275 [ms]
[OGL LOG][Proc: 0]p: init_precond: 0.031 [ms]
[OGL LOG][StoppingCriterion.H:237] Creating stopping criterion with minIter 439 frequency 12
[OGL LOG][Proc: 0]p: generate_solver: 0.001 [ms]
[OGL LOG][Proc: 0]p: solve: 151.955 [ms]
[OGL LOG][Proc: 0]p: copy_x_back: 0.534 [ms]
[OGL LOG][lduLduBase.H:330] 
Statistics:
	Time per iteration: 210 [mu s]
	Time per residual norm calculation: 89.000000 [mu s]
	Time per iteration and DOF: 0.210000 [ns]
	Retrieve results bandwidth 3.745000 [GByte/s]
[OGL LOG][Proc: 0]p: solve_multi_gpu: 179.487 [ms]
nonecudaGKOCG:  Solving for p, Initial residual = 0.195081, Final residual = 9.88129e-05, No Iterations 721
[INFO] SolveP: 187.248 [ms]
time step continuity errors : sum local = 1.53755e-08, global = -1.36562e-20, cumulative = -1.48358e-20
[INFO] ContinuityError: 4.802 [ms]
[INFO] CorrectBoundary: 0.115 [ms]
[INFO] PISOStep: 255.504 [ms]
[INFO] MatrixAssemblyPI: 34.876 [ms]
[INFO] AdjustPhi: 1.72 [ms]
[INFO] ConstrainPressure: 0.002 [ms]
[INFO] MatrixAssemblyPII: 11.275 [ms]
[OGL LOG][Proc: 0]: global_index_init: 0.008 [ms]
[OGL LOG][Proc: 0]p_local_coeffs: call_update: 0 [ms]
[OGL LOG][Proc: 0]p_non_local_coeffs: call_update: 0 [ms]
[OGL LOG][Proc: 0]p: update_local_matrix_data: 6.481 [ms]
[OGL LOG][Proc: 0]p: update_non_local_matrix_data: 0.058 [ms]
[OGL LOG][Proc: 0]p: regenerate_distributed_matrix: 24.772 [ms]
[OGL LOG][Proc: 0]p_matrix: call_update: 25.237 [ms]
[OGL LOG][Proc: 0]p_rhs: call_update: 0.223 [ms]
[OGL LOG][Proc: 0]p: init_precond: 0.023 [ms]
[OGL LOG][StoppingCriterion.H:237] Creating stopping criterion with minIter 432 frequency 12
[OGL LOG][Proc: 0]p: generate_solver: 0.001 [ms]
[OGL LOG][Proc: 0]p: solve: 156.923 [ms]
[OGL LOG][Proc: 0]p: copy_x_back: 0.658 [ms]
[OGL LOG][lduLduBase.H:330] 
Statistics:
	Time per iteration: 217 [mu s]
	Time per residual norm calculation: 91.000000 [mu s]
	Time per iteration and DOF: 0.217000 [ns]
	Retrieve results bandwidth 3.039000 [GByte/s]
[OGL LOG][Proc: 0]p: solve_multi_gpu: 184.015 [ms]
nonecudaGKOCG:  Solving for p, Initial residual = 0.162093, Final residual = 8.69974e-05, No Iterations 721
[INFO] SolveP: 192.032 [ms]
time step continuity errors : sum local = 1.35513e-08, global = -8.31557e-21, cumulative = -2.31514e-20
[INFO] ContinuityError: 4.719 [ms]
[INFO] CorrectBoundary: 0.108 [ms]
[INFO] PISOStep: 258.459 [ms]
[INFO] TimeStep: 841.228 [ms]
ExecutionTime = 6.18 s  ClockTime = 7 s

Time = 0.0035

Courant Number mean: 0.0514175 max: 0.466753
[INFO] MatrixAssemblyU: 32.619 [ms]
DILUPBiCGStab:  Solving for Ux, Initial residual = 0.0146214, Final residual = 4.31908e-05, No Iterations 5
DILUPBiCGStab:  Solving for Uy, Initial residual = 0.03174, Final residual = 6.01645e-05, No Iterations 5
DILUPBiCGStab:  Solving for Uz, Initial residual = 0.056439, Final residual = 0.000166646, No Iterations 5
[INFO] MomentumPredictor: 288.6 [ms]
[INFO] MatrixAssemblyPI: 36.029 [ms]
[INFO] AdjustPhi: 1.73 [ms]
[INFO] ConstrainPressure: 0.002 [ms]
[INFO] MatrixAssemblyPII: 11.112 [ms]
[OGL LOG][Proc: 0]: global_index_init: 0.007 [ms]
[OGL LOG][Proc: 0]p_local_coeffs: call_update: 0 [ms]
[OGL LOG][Proc: 0]p_non_local_coeffs: call_update: 0 [ms]
[OGL LOG][Proc: 0]p: update_local_matrix_data: 6.472 [ms]
[OGL LOG][Proc: 0]p: update_non_local_matrix_data: 0.058 [ms]
[OGL LOG][Proc: 0]p: regenerate_distributed_matrix: 24.54 [ms]
[OGL LOG][Proc: 0]p_matrix: call_update: 25.066 [ms]
[OGL LOG][Proc: 0]p_rhs: call_update: 0.313 [ms]
[OGL LOG][Proc: 0]p: init_precond: 0.024 [ms]
[OGL LOG][StoppingCriterion.H:237] Creating stopping criterion with minIter 432 frequency 12
[OGL LOG][Proc: 0]p: generate_solver: 0.001 [ms]
[OGL LOG][Proc: 0]p: solve: 102.856 [ms]
[OGL LOG][Proc: 0]p: copy_x_back: 0.644 [ms]
[OGL LOG][lduLduBase.H:330] 
Statistics:
	Time per iteration: 225 [mu s]
	Time per residual norm calculation: 97.000000 [mu s]
	Time per iteration and DOF: 0.225000 [ns]
	Retrieve results bandwidth 3.105000 [GByte/s]
[OGL LOG][Proc: 0]p: solve_multi_gpu: 129.861 [ms]
nonecudaGKOCG:  Solving for p, Initial residual = 0.138517, Final residual = 9.82263e-05, No Iterations 457
[INFO] SolveP: 137.867 [ms]
time step continuity errors : sum local = 1.58591e-08, global = -8.61964e-21, cumulative = -3.1771e-20
[INFO] ContinuityError: 4.341 [ms]
[INFO] CorrectBoundary: 0.096 [ms]
[INFO] PISOStep: 204.987 [ms]
[INFO] MatrixAssemblyPI: 34.478 [ms]
[INFO] AdjustPhi: 1.728 [ms]
[INFO] ConstrainPressure: 0.002 [ms]
[INFO] MatrixAssemblyPII: 11.226 [ms]
[OGL LOG][Proc: 0]: global_index_init: 0.034 [ms]
[OGL LOG][Proc: 0]p_local_coeffs: call_update: 0 [ms]
[OGL LOG][Proc: 0]p_non_local_coeffs: call_update: 0 [ms]
[OGL LOG][Proc: 0]p: update_local_matrix_data: 6.501 [ms]
[OGL LOG][Proc: 0]p: update_non_local_matrix_data: 0.057 [ms]
[OGL LOG][Proc: 0]p: regenerate_distributed_matrix: 26.892 [ms]
[OGL LOG][Proc: 0]p_matrix: call_update: 27.417 [ms]
[OGL LOG][Proc: 0]p_rhs: call_update: 1.312 [ms]
[OGL LOG][Proc: 0]p: init_precond: 0.027 [ms]
[OGL LOG][StoppingCriterion.H:237] Creating stopping criterion with minIter 274 frequency 9
[OGL LOG][Proc: 0]p: generate_solver: 0.003 [ms]
[OGL LOG][Proc: 0]p: solve: 78.647 [ms]
[OGL LOG][Proc: 0]p: copy_x_back: 0.795 [ms]
[OGL LOG][lduLduBase.H:330] 
Statistics:
	Time per iteration: 235 [mu s]
	Time per residual norm calculation: 96.000000 [mu s]
	Time per iteration and DOF: 0.235000 [ns]
	Retrieve results bandwidth 2.515000 [GByte/s]
[OGL LOG][Proc: 0]p: solve_multi_gpu: 109.197 [ms]
nonecudaGKOCG:  Solving for p, Initial residual = 0.115865, Final residual = 9.27364e-05, No Iterations 334
[INFO] SolveP: 117.779 [ms]
time step continuity errors : sum local = 1.41044e-08, global = -1.71898e-21, cumulative = -3.349e-20
[INFO] ContinuityError: 4.651 [ms]
[INFO] CorrectBoundary: 0.138 [ms]
[INFO] PISOStep: 186.703 [ms]
[INFO] TimeStep: 717.808 [ms]
ExecutionTime = 6.91 s  ClockTime = 7 s

Time = 0.004

Courant Number mean: 0.0543556 max: 0.468961
[INFO] MatrixAssemblyU: 34.168 [ms]
DILUPBiCGStab:  Solving for Ux, Initial residual = 0.0122662, Final residual = 3.51866e-05, No Iterations 5
DILUPBiCGStab:  Solving for Uy, Initial residual = 0.026514, Final residual = 3.25119e-05, No Iterations 5
DILUPBiCGStab:  Solving for Uz, Initial residual = 0.0510998, Final residual = 0.00011645, No Iterations 5
[INFO] MomentumPredictor: 292.106 [ms]
[INFO] MatrixAssemblyPI: 37.775 [ms]
[INFO] AdjustPhi: 2.396 [ms]
[INFO] ConstrainPressure: 0.002 [ms]
[INFO] MatrixAssemblyPII: 11.195 [ms]
[OGL LOG][Proc: 0]: global_index_init: 0.02 [ms]
[OGL LOG][Proc: 0]p_local_coeffs: call_update: 0 [ms]
[OGL LOG][Proc: 0]p_non_local_coeffs: call_update: 0 [ms]
[OGL LOG][Proc: 0]p: update_local_matrix_data: 6.963 [ms]
[OGL LOG][Proc: 0]p: update_non_local_matrix_data: 0.086 [ms]
[OGL LOG][Proc: 0]p: regenerate_distributed_matrix: 24.578 [ms]
[OGL LOG][Proc: 0]p_matrix: call_update: 25.247 [ms]
[OGL LOG][Proc: 0]p_rhs: call_update: 0.384 [ms]
[OGL LOG][Proc: 0]p: init_precond: 0.029 [ms]
[OGL LOG][StoppingCriterion.H:237] Creating stopping criterion with minIter 200 frequency 8
[OGL LOG][Proc: 0]p: generate_solver: 0.001 [ms]
[OGL LOG][Proc: 0]p: solve: 78.72 [ms]
[OGL LOG][Proc: 0]p: copy_x_back: 0.623 [ms]
[OGL LOG][lduLduBase.H:330] 
Statistics:
	Time per iteration: 239 [mu s]
	Time per residual norm calculation: 94.000000 [mu s]
	Time per iteration and DOF: 0.239000 [ns]
	Retrieve results bandwidth 3.210000 [GByte/s]
[OGL LOG][Proc: 0]p: solve_multi_gpu: 105.8 [ms]
nonecudaGKOCG:  Solving for p, Initial residual = 0.0904509, Final residual = 8.55356e-05, No Iterations 329
[INFO] SolveP: 114.596 [ms]
time step continuity errors : sum local = 1.24507e-08, global = 4.43255e-21, cumulative = -2.90575e-20
[INFO] ContinuityError: 4.35 [ms]
[INFO] CorrectBoundary: 0.125 [ms]
[INFO] PISOStep: 184.571 [ms]
[INFO] MatrixAssemblyPI: 34.562 [ms]
[INFO] AdjustPhi: 1.753 [ms]
[INFO] ConstrainPressure: 0.002 [ms]
[INFO] MatrixAssemblyPII: 11.228 [ms]
[OGL LOG][Proc: 0]: global_index_init: 0.034 [ms]
[OGL LOG][Proc: 0]p_local_coeffs: call_update: 0 [ms]
[OGL LOG][Proc: 0]p_non_local_coeffs: call_update: 0 [ms]
[OGL LOG][Proc: 0]p: update_local_matrix_data: 6.462 [ms]
[OGL LOG][Proc: 0]p: update_non_local_matrix_data: 0.057 [ms]
[OGL LOG][Proc: 0]p: regenerate_distributed_matrix: 23.033 [ms]
[OGL LOG][Proc: 0]p_matrix: call_update: 23.458 [ms]
[OGL LOG][Proc: 0]p_rhs: call_update: 0.412 [ms]
[OGL LOG][Proc: 0]p: init_precond: 0.029 [ms]
[OGL LOG][StoppingCriterion.H:237] Creating stopping criterion with minIter 197 frequency 8
[OGL LOG][Proc: 0]p: generate_solver: 0.001 [ms]
[OGL LOG][Proc: 0]p: solve: 76.887 [ms]
[OGL LOG][Proc: 0]p: copy_x_back: 0.643 [ms]
[OGL LOG][lduLduBase.H:330] 
Statistics:
	Time per iteration: 239 [mu s]
	Time per residual norm calculation: 95.000000 [mu s]
	Time per iteration and DOF: 0.239000 [ns]
	Retrieve results bandwidth 3.110000 [GByte/s]
[OGL LOG][Proc: 0]p: solve_multi_gpu: 102.386 [ms]
nonecudaGKOCG:  Solving for p, Initial residual = 0.0747995, Final residual = 9.62514e-05, No Iterations 321
[INFO] SolveP: 110.382 [ms]
time step continuity errors : sum local = 1.39897e-08, global = 1.52284e-21, cumulative = -2.75346e-20
[INFO] ContinuityError: 4.279 [ms]
[INFO] CorrectBoundary: 0.09 [ms]
[INFO] PISOStep: 175.821 [ms]
[INFO] TimeStep: 692.229 [ms]
ExecutionTime = 7.6 s  ClockTime = 8 s

Time = 0.0045

Courant Number mean: 0.0569322 max: 0.470662
[INFO] MatrixAssemblyU: 33.204 [ms]
DILUPBiCGStab:  Solving for Ux, Initial residual = 0.0105198, Final residual = 2.72135e-05, No Iterations 5
DILUPBiCGStab:  Solving for Uy, Initial residual = 0.0226638, Final residual = 3.08814e-05, No Iterations 5
DILUPBiCGStab:  Solving for Uz, Initial residual = 0.0427688, Final residual = 8.77489e-05, No Iterations 5
[INFO] MomentumPredictor: 286.213 [ms]
[INFO] MatrixAssemblyPI: 36.415 [ms]
[INFO] AdjustPhi: 1.765 [ms]
[INFO] ConstrainPressure: 0.002 [ms]
[INFO] MatrixAssemblyPII: 11.872 [ms]
[OGL LOG][Proc: 0]: global_index_init: 0.007 [ms]
[OGL LOG][Proc: 0]p_local_coeffs: call_update: 0 [ms]
[OGL LOG][Proc: 0]p_non_local_coeffs: call_update: 0 [ms]
[OGL LOG][Proc: 0]p: update_local_matrix_data: 6.549 [ms]
[OGL LOG][Proc: 0]p: update_non_local_matrix_data: 0.061 [ms]
[OGL LOG][Proc: 0]p: regenerate_distributed_matrix: 24.628 [ms]
[OGL LOG][Proc: 0]p_matrix: call_update: 25.12 [ms]
[OGL LOG][Proc: 0]p_rhs: call_update: 0.298 [ms]
[OGL LOG][Proc: 0]p: init_precond: 0.026 [ms]
[OGL LOG][StoppingCriterion.H:237] Creating stopping criterion with minIter 192 frequency 8
[OGL LOG][Proc: 0]p: generate_solver: 0.001 [ms]
[OGL LOG][Proc: 0]p: solve: 78.893 [ms]
[OGL LOG][Proc: 0]p: copy_x_back: 0.606 [ms]
[OGL LOG][lduLduBase.H:330] 
Statistics:
	Time per iteration: 239 [mu s]
	Time per residual norm calculation: 94.000000 [mu s]
	Time per iteration and DOF: 0.239000 [ns]
	Retrieve results bandwidth 3.300000 [GByte/s]
[OGL LOG][Proc: 0]p: solve_multi_gpu: 105.882 [ms]
nonecudaGKOCG:  Solving for p, Initial residual = 0.06632, Final residual = 9.84941e-05, No Iterations 329
[INFO] SolveP: 113.959 [ms]
time step continuity errors : sum local = 1.58136e-08, global = 1.40186e-21, cumulative = -2.61328e-20
[INFO] ContinuityError: 4.341 [ms]
[INFO] CorrectBoundary: 0.101 [ms]
[INFO] PISOStep: 182.486 [ms]
[INFO] MatrixAssemblyPI: 35.457 [ms]
[INFO] AdjustPhi: 1.758 [ms]
[INFO] ConstrainPressure: 0.002 [ms]
[INFO] MatrixAssemblyPII: 11.108 [ms]
[OGL LOG][Proc: 0]: global_index_init: 0.012 [ms]
[OGL LOG][Proc: 0]p_local_coeffs: call_update: 0 [ms]
[OGL LOG][Proc: 0]p_non_local_coeffs: call_update: 0 [ms]
[OGL LOG][Proc: 0]p: update_local_matrix_data: 6.36 [ms]
[OGL LOG][Proc: 0]p: update_non_local_matrix_data: 0.055 [ms]
[OGL LOG][Proc: 0]p: regenerate_distributed_matrix: 23.534 [ms]
[OGL LOG][Proc: 0]p_matrix: call_update: 24.09 [ms]
[OGL LOG][Proc: 0]p_rhs: call_update: 0.277 [ms]
[OGL LOG][Proc: 0]p: init_precond: 0.022 [ms]
[OGL LOG][StoppingCriterion.H:237] Creating stopping criterion with minIter 197 frequency 8
[OGL LOG][Proc: 0]p: generate_solver: 0.001 [ms]
[OGL LOG][Proc: 0]p: solve: 78.344 [ms]
[OGL LOG][Proc: 0]p: copy_x_back: 0.624 [ms]
[OGL LOG][lduLduBase.H:330] 
Statistics:
	Time per iteration: 244 [mu s]
	Time per residual norm calculation: 94.000000 [mu s]
	Time per iteration and DOF: 0.244000 [ns]
	Retrieve results bandwidth 3.205000 [GByte/s]
[OGL LOG][Proc: 0]p: solve_multi_gpu: 104.307 [ms]
nonecudaGKOCG:  Solving for p, Initial residual = 0.0552933, Final residual = 8.98979e-05, No Iterations 321
[INFO] SolveP: 112.236 [ms]
time step continuity errors : sum local = 1.34481e-08, global = -2.77106e-23, cumulative = -2.61605e-20
[INFO] ContinuityError: 4.319 [ms]
[INFO] CorrectBoundary: 0.101 [ms]
[INFO] PISOStep: 179.777 [ms]
[INFO] TimeStep: 686.463 [ms]
ExecutionTime = 8.28 s  ClockTime = 9 s

Time = 0.005

Courant Number mean: 0.0592265 max: 0.472056
[INFO] MatrixAssemblyU: 33.62 [ms]
DILUPBiCGStab:  Solving for Ux, Initial residual = 0.00920372, Final residual = 2.27283e-05, No Iterations 5
DILUPBiCGStab:  Solving for Uy, Initial residual = 0.0197359, Final residual = 2.10477e-05, No Iterations 5
DILUPBiCGStab:  Solving for Uz, Initial residual = 0.0380181, Final residual = 6.93706e-05, No Iterations 5
[INFO] MomentumPredictor: 284.905 [ms]
[INFO] MatrixAssemblyPI: 35.912 [ms]
[INFO] AdjustPhi: 1.827 [ms]
[INFO] ConstrainPressure: 0.002 [ms]
[INFO] MatrixAssemblyPII: 11.463 [ms]
[OGL LOG][Proc: 0]: global_index_init: 0.006 [ms]
[OGL LOG][Proc: 0]p_local_coeffs: call_update: 0 [ms]
[OGL LOG][Proc: 0]p_non_local_coeffs: call_update: 0 [ms]
[OGL LOG][Proc: 0]p: update_local_matrix_data: 6.401 [ms]
[OGL LOG][Proc: 0]p: update_non_local_matrix_data: 0.065 [ms]
[OGL LOG][Proc: 0]p: regenerate_distributed_matrix: 22.906 [ms]
[OGL LOG][Proc: 0]p_matrix: call_update: 23.429 [ms]
[OGL LOG][Proc: 0]p_rhs: call_update: 0.299 [ms]
[OGL LOG][Proc: 0]p: init_precond: 0.027 [ms]
[OGL LOG][StoppingCriterion.H:237] Creating stopping criterion with minIter 192 frequency 8
[OGL LOG][Proc: 0]p: generate_solver: 0.002 [ms]
[OGL LOG][Proc: 0]p: solve: 77.653 [ms]
[OGL LOG][Proc: 0]p: copy_x_back: 0.627 [ms]
[OGL LOG][lduLduBase.H:330] 
Statistics:
	Time per iteration: 241 [mu s]
	Time per residual norm calculation: 94.000000 [mu s]
	Time per iteration and DOF: 0.241000 [ns]
	Retrieve results bandwidth 3.189000 [GByte/s]
[OGL LOG][Proc: 0]p: solve_multi_gpu: 103.016 [ms]
nonecudaGKOCG:  Solving for p, Initial residual = 0.0445608, Final residual = 9.89406e-05, No Iterations 321
[INFO] SolveP: 110.96 [ms]
time step continuity errors : sum local = 1.47343e-08, global = 2.09318e-21, cumulative = -2.40673e-20
[INFO] ContinuityError: 4.354 [ms]
[INFO] CorrectBoundary: 0.101 [ms]
[INFO] PISOStep: 178.191 [ms]
[INFO] MatrixAssemblyPI: 34.391 [ms]
[INFO] AdjustPhi: 4.088 [ms]
[INFO] ConstrainPressure: 0.002 [ms]
[INFO] MatrixAssemblyPII: 11.135 [ms]
[OGL LOG][Proc: 0]: global_index_init: 0.009 [ms]
[OGL LOG][Proc: 0]p_local_coeffs: call_update: 0 [ms]
[OGL LOG][Proc: 0]p_non_local_coeffs: call_update: 0 [ms]
[OGL LOG][Proc: 0]p: update_local_matrix_data: 6.366 [ms]
[OGL LOG][Proc: 0]p: update_non_local_matrix_data: 0.058 [ms]
[OGL LOG][Proc: 0]p: regenerate_distributed_matrix: 24.486 [ms]
[OGL LOG][Proc: 0]p_matrix: call_update: 25.085 [ms]
[OGL LOG][Proc: 0]p_rhs: call_update: 0.314 [ms]
[OGL LOG][Proc: 0]p: init_precond: 0.025 [ms]
[OGL LOG][StoppingCriterion.H:237] Creating stopping criterion with minIter 192 frequency 8
[OGL LOG][Proc: 0]p: generate_solver: 0.001 [ms]
[OGL LOG][Proc: 0]p: solve: 77.592 [ms]
[OGL LOG][Proc: 0]p: copy_x_back: 0.64 [ms]
[OGL LOG][lduLduBase.H:330] 
Statistics:
	Time per iteration: 241 [mu s]
	Time per residual norm calculation: 94.000000 [mu s]
	Time per iteration and DOF: 0.241000 [ns]
	Retrieve results bandwidth 3.125000 [GByte/s]
[OGL LOG][Proc: 0]p: solve_multi_gpu: 104.993 [ms]
nonecudaGKOCG:  Solving for p, Initial residual = 0.0375355, Final residual = 8.79307e-05, No Iterations 321
[INFO] SolveP: 112.875 [ms]
time step continuity errors : sum local = 1.25327e-08, global = -2.77447e-21, cumulative = -2.68418e-20
[INFO] ContinuityError: 4.36 [ms]
[INFO] CorrectBoundary: 0.103 [ms]
[INFO] PISOStep: 182.24 [ms]
[INFO] TimeStep: 683.728 [ms]
ExecutionTime = 8.96 s  ClockTime = 9 s

Time = 0.0055

Courant Number mean: 0.0612855 max: 0.473202
[INFO] MatrixAssemblyU: 33.555 [ms]
DILUPBiCGStab:  Solving for Ux, Initial residual = 0.00813381, Final residual = 1.8782e-05, No Iterations 5
DILUPBiCGStab:  Solving for Uy, Initial residual = 0.0174407, Final residual = 1.92218e-05, No Iterations 5
DILUPBiCGStab:  Solving for Uz, Initial residual = 0.0342477, Final residual = 5.8919e-05, No Iterations 5
[INFO] MomentumPredictor: 287.497 [ms]
[INFO] MatrixAssemblyPI: 42.394 [ms]
[INFO] AdjustPhi: 1.849 [ms]
[INFO] ConstrainPressure: 0.002 [ms]
[INFO] MatrixAssemblyPII: 12.21 [ms]
[OGL LOG][Proc: 0]: global_index_init: 0.032 [ms]
[OGL LOG][Proc: 0]p_local_coeffs: call_update: 0 [ms]
[OGL LOG][Proc: 0]p_non_local_coeffs: call_update: 0 [ms]
[OGL LOG][Proc: 0]p: update_local_matrix_data: 7.057 [ms]
[OGL LOG][Proc: 0]p: update_non_local_matrix_data: 0.083 [ms]
[OGL LOG][Proc: 0]p: regenerate_distributed_matrix: 24.804 [ms]
[OGL LOG][Proc: 0]p_matrix: call_update: 25.268 [ms]
[OGL LOG][Proc: 0]p_rhs: call_update: 0.301 [ms]
[OGL LOG][Proc: 0]p: init_precond: 0.026 [ms]
[OGL LOG][StoppingCriterion.H:237] Creating stopping criterion with minIter 192 frequency 8
[OGL LOG][Proc: 0]p: generate_solver: 0.003 [ms]
[OGL LOG][Proc: 0]p: solve: 156.391 [ms]
[OGL LOG][Proc: 0]p: copy_x_back: 0.784 [ms]
[OGL LOG][lduLduBase.H:330] 
Statistics:
	Time per iteration: 224 [mu s]
	Time per residual norm calculation: 97.000000 [mu s]
	Time per iteration and DOF: 0.224000 [ns]
	Retrieve results bandwidth 2.551000 [GByte/s]
[OGL LOG][Proc: 0]p: solve_multi_gpu: 183.729 [ms]
nonecudaGKOCG:  Solving for p, Initial residual = 0.0348209, Final residual = 7.77047e-05, No Iterations 697
[INFO] SolveP: 192.486 [ms]
time step continuity errors : sum local = 1.09346e-08, global = -2.97943e-21, cumulative = -2.98212e-20
[INFO] ContinuityError: 4.445 [ms]
[INFO] CorrectBoundary: 0.127 [ms]
[INFO] PISOStep: 267.256 [ms]
[INFO] MatrixAssemblyPI: 34.581 [ms]
[INFO] AdjustPhi: 1.745 [ms]
[INFO] ConstrainPressure: 0.001 [ms]
[INFO] MatrixAssemblyPII: 11.178 [ms]
[OGL LOG][Proc: 0]: global_index_init: 0.007 [ms]
[OGL LOG][Proc: 0]p_local_coeffs: call_update: 0 [ms]
[OGL LOG][Proc: 0]p_non_local_coeffs: call_update: 0 [ms]
[OGL LOG][Proc: 0]p: update_local_matrix_data: 6.463 [ms]
[OGL LOG][Proc: 0]p: update_non_local_matrix_data: 0.056 [ms]
[OGL LOG][Proc: 0]p: regenerate_distributed_matrix: 24.484 [ms]
[OGL LOG][Proc: 0]p_matrix: call_update: 25.028 [ms]
[OGL LOG][Proc: 0]p_rhs: call_update: 0.29 [ms]
[OGL LOG][Proc: 0]p: init_precond: 0.025 [ms]
[OGL LOG][StoppingCriterion.H:237] Creating stopping criterion with minIter 418 frequency 11
[OGL LOG][Proc: 0]p: generate_solver: 0.001 [ms]
[OGL LOG][Proc: 0]p: solve: 151.773 [ms]
[OGL LOG][Proc: 0]p: copy_x_back: 0.571 [ms]
[OGL LOG][lduLduBase.H:330] 
Statistics:
	Time per iteration: 218 [mu s]
	Time per residual norm calculation: 94.000000 [mu s]
	Time per iteration and DOF: 0.218000 [ns]
	Retrieve results bandwidth 3.502000 [GByte/s]
[OGL LOG][Proc: 0]p: solve_multi_gpu: 178.636 [ms]
nonecudaGKOCG:  Solving for p, Initial residual = 0.029521, Final residual = 8.11025e-05, No Iterations 694
[INFO] SolveP: 186.645 [ms]
time step continuity errors : sum local = 1.14171e-08, global = 2.72971e-21, cumulative = -2.70915e-20
[INFO] ContinuityError: 4.386 [ms]
[INFO] CorrectBoundary: 0.106 [ms]
[INFO] PISOStep: 252.265 [ms]
[INFO] TimeStep: 845.958 [ms]
ExecutionTime = 9.8 s  ClockTime = 10 s

Time = 0.006

Courant Number mean: 0.0631563 max: 0.474179
[INFO] MatrixAssemblyU: 33.347 [ms]
DILUPBiCGStab:  Solving for Ux, Initial residual = 0.00728086, Final residual = 1.63027e-05, No Iterations 5
DILUPBiCGStab:  Solving for Uy, Initial residual = 0.0155665, Final residual = 1.4384e-05, No Iterations 5
DILUPBiCGStab:  Solving for Uz, Initial residual = 0.0304697, Final residual = 4.58327e-05, No Iterations 5
[INFO] MomentumPredictor: 286.997 [ms]
[INFO] MatrixAssemblyPI: 36.078 [ms]
[INFO] AdjustPhi: 1.8 [ms]
[INFO] ConstrainPressure: 0.002 [ms]
[INFO] MatrixAssemblyPII: 11.796 [ms]
[OGL LOG][Proc: 0]: global_index_init: 0.007 [ms]
[OGL LOG][Proc: 0]p_local_coeffs: call_update: 0 [ms]
[OGL LOG][Proc: 0]p_non_local_coeffs: call_update: 0 [ms]
[OGL LOG][Proc: 0]p: update_local_matrix_data: 6.382 [ms]
[OGL LOG][Proc: 0]p: update_non_local_matrix_data: 0.056 [ms]
[OGL LOG][Proc: 0]p: regenerate_distributed_matrix: 23.374 [ms]
[OGL LOG][Proc: 0]p_matrix: call_update: 23.866 [ms]
[OGL LOG][Proc: 0]p_rhs: call_update: 0.295 [ms]
[OGL LOG][Proc: 0]p: init_precond: 0.028 [ms]
[OGL LOG][StoppingCriterion.H:237] Creating stopping criterion with minIter 416 frequency 11
[OGL LOG][Proc: 0]p: generate_solver: 0.001 [ms]
[OGL LOG][Proc: 0]p: solve: 95.087 [ms]
[OGL LOG][Proc: 0]p: copy_x_back: 0.573 [ms]
[OGL LOG][lduLduBase.H:330] 
Statistics:
	Time per iteration: 226 [mu s]
	Time per residual norm calculation: 104.000000 [mu s]
	Time per iteration and DOF: 0.226000 [ns]
	Retrieve results bandwidth 3.490000 [GByte/s]
[OGL LOG][Proc: 0]p: solve_multi_gpu: 120.754 [ms]
nonecudaGKOCG:  Solving for p, Initial residual = 0.0249437, Final residual = 1.32484e-05, No Iterations 419
[INFO] SolveP: 128.719 [ms]
time step continuity errors : sum local = 1.97539e-09, global = -5.30408e-21, cumulative = -3.23956e-20
[INFO] ContinuityError: 4.331 [ms]
[INFO] CorrectBoundary: 0.092 [ms]
[INFO] PISOStep: 196.703 [ms]
[INFO] MatrixAssemblyPI: 34.262 [ms]
[INFO] AdjustPhi: 1.698 [ms]
[INFO] ConstrainPressure: 0.002 [ms]
[INFO] MatrixAssemblyPII: 11.227 [ms]
[OGL LOG][Proc: 0]: global_index_init: 0.01 [ms]
[OGL LOG][Proc: 0]p_local_coeffs: call_update: 0 [ms]
[OGL LOG][Proc: 0]p_non_local_coeffs: call_update: 0 [ms]
[OGL LOG][Proc: 0]p: update_local_matrix_data: 6.477 [ms]
[OGL LOG][Proc: 0]p: update_non_local_matrix_data: 0.06 [ms]
[OGL LOG][Proc: 0]p: regenerate_distributed_matrix: 23.868 [ms]
[OGL LOG][Proc: 0]p_matrix: call_update: 24.599 [ms]
[OGL LOG][Proc: 0]p_rhs: call_update: 0.308 [ms]
[OGL LOG][Proc: 0]p: init_precond: 0.024 [ms]
[OGL LOG][StoppingCriterion.H:237] Creating stopping criterion with minIter 251 frequency 9
[OGL LOG][Proc: 0]p: generate_solver: 0.001 [ms]
[OGL LOG][Proc: 0]p: solve: 75.942 [ms]
[OGL LOG][Proc: 0]p: copy_x_back: 0.582 [ms]
[OGL LOG][lduLduBase.H:330] 
Statistics:
	Time per iteration: 240 [mu s]
	Time per residual norm calculation: 94.000000 [mu s]
	Time per iteration and DOF: 0.240000 [ns]
	Retrieve results bandwidth 3.436000 [GByte/s]
[OGL LOG][Proc: 0]p: solve_multi_gpu: 102.404 [ms]
nonecudaGKOCG:  Solving for p, Initial residual = 0.0217266, Final residual = 7.30416e-05, No Iterations 316
[INFO] SolveP: 110.379 [ms]
time step continuity errors : sum local = 1.03349e-08, global = -5.6585e-21, cumulative = -3.80541e-20
[INFO] ContinuityError: 4.606 [ms]
[INFO] CorrectBoundary: 0.101 [ms]
[INFO] PISOStep: 176.02 [ms]
[INFO] TimeStep: 697.817 [ms]
ExecutionTime = 10.5 s  ClockTime = 11 s

Time = 0.0065

Courant Number mean: 0.0648593 max: 0.475014
[INFO] MatrixAssemblyU: 33.127 [ms]
DILUPBiCGStab:  Solving for Ux, Initial residual = 0.00655132, Final residual = 1.40368e-05, No Iterations 5
DILUPBiCGStab:  Solving for Uy, Initial residual = 0.0140445, Final residual = 1.34845e-05, No Iterations 5
DILUPBiCGStab:  Solving for Uz, Initial residual = 0.0276114, Final residual = 3.82886e-05, No Iterations 5
[INFO] MomentumPredictor: 286.285 [ms]
[INFO] MatrixAssemblyPI: 36.281 [ms]
[INFO] AdjustPhi: 1.801 [ms]
[INFO] ConstrainPressure: 0.002 [ms]
[INFO] MatrixAssemblyPII: 11.308 [ms]
[OGL LOG][Proc: 0]: global_index_init: 0.018 [ms]
[OGL LOG][Proc: 0]p_local_coeffs: call_update: 0 [ms]
[OGL LOG][Proc: 0]p_non_local_coeffs: call_update: 0 [ms]
[OGL LOG][Proc: 0]p: update_local_matrix_data: 6.441 [ms]
[OGL LOG][Proc: 0]p: update_non_local_matrix_data: 0.054 [ms]
[OGL LOG][Proc: 0]p: regenerate_distributed_matrix: 23.374 [ms]
[OGL LOG][Proc: 0]p_matrix: call_update: 23.94 [ms]
[OGL LOG][Proc: 0]p_rhs: call_update: 0.3 [ms]
[OGL LOG][Proc: 0]p: init_precond: 0.025 [ms]
[OGL LOG][StoppingCriterion.H:237] Creating stopping criterion with minIter 189 frequency 7
[OGL LOG][Proc: 0]p: generate_solver: 0.001 [ms]
[OGL LOG][Proc: 0]p: solve: 75.08 [ms]
[OGL LOG][Proc: 0]p: copy_x_back: 0.592 [ms]
[OGL LOG][lduLduBase.H:330] 
Statistics:
	Time per iteration: 242 [mu s]
	Time per residual norm calculation: 94.000000 [mu s]
	Time per iteration and DOF: 0.242000 [ns]
	Retrieve results bandwidth 3.378000 [GByte/s]
[OGL LOG][Proc: 0]p: solve_multi_gpu: 100.838 [ms]
nonecudaGKOCG:  Solving for p, Initial residual = 0.0203003, Final residual = 9.13373e-05, No Iterations 309
[INFO] SolveP: 108.883 [ms]
time step continuity errors : sum local = 1.35282e-08, global = 3.299e-21, cumulative = -3.47551e-20
[INFO] ContinuityError: 4.383 [ms]
[INFO] CorrectBoundary: 0.095 [ms]
[INFO] PISOStep: 176.307 [ms]
[INFO] MatrixAssemblyPI: 34.257 [ms]
[INFO] AdjustPhi: 1.708 [ms]
[INFO] ConstrainPressure: 0.002 [ms]
[INFO] MatrixAssemblyPII: 11.26 [ms]
[OGL LOG][Proc: 0]: global_index_init: 0.017 [ms]
[OGL LOG][Proc: 0]p_local_coeffs: call_update: 0 [ms]
[OGL LOG][Proc: 0]p_non_local_coeffs: call_update: 0 [ms]
[OGL LOG][Proc: 0]p: update_local_matrix_data: 6.498 [ms]
[OGL LOG][Proc: 0]p: update_non_local_matrix_data: 0.058 [ms]
[OGL LOG][Proc: 0]p: regenerate_distributed_matrix: 23.08 [ms]
[OGL LOG][Proc: 0]p_matrix: call_update: 23.59 [ms]
[OGL LOG][Proc: 0]p_rhs: call_update: 0.275 [ms]
[OGL LOG][Proc: 0]p: init_precond: 0.023 [ms]
[OGL LOG][StoppingCriterion.H:237] Creating stopping criterion with minIter 185 frequency 7
[OGL LOG][Proc: 0]p: generate_solver: 0.001 [ms]
[OGL LOG][Proc: 0]p: solve: 74.811 [ms]
[OGL LOG][Proc: 0]p: copy_x_back: 0.575 [ms]
[OGL LOG][lduLduBase.H:330] 
Statistics:
	Time per iteration: 242 [mu s]
	Time per residual norm calculation: 103.000000 [mu s]
	Time per iteration and DOF: 0.242000 [ns]
	Retrieve results bandwidth 3.478000 [GByte/s]
[OGL LOG][Proc: 0]p: solve_multi_gpu: 100.239 [ms]
nonecudaGKOCG:  Solving for p, Initial residual = 0.0178199, Final residual = 8.02522e-05, No Iterations 309
[INFO] SolveP: 108.274 [ms]
time step continuity errors : sum local = 1.14196e-08, global = -3.75287e-21, cumulative = -3.85079e-20
[INFO] ContinuityError: 4.342 [ms]
[INFO] CorrectBoundary: 0.1 [ms]
[INFO] PISOStep: 173.715 [ms]
[INFO] TimeStep: 674.159 [ms]
ExecutionTime = 11.18 s  ClockTime = 12 s

Time = 0.007

Courant Number mean: 0.0664262 max: 0.475744
[INFO] MatrixAssemblyU: 33.156 [ms]
DILUPBiCGStab:  Solving for Ux, Initial residual = 0.00595139, Final residual = 1.25106e-05, No Iterations 5
DILUPBiCGStab:  Solving for Uy, Initial residual = 0.0127557, Final residual = 1.10863e-05, No Iterations 5
DILUPBiCGStab:  Solving for Uz, Initial residual = 0.0252004, Final residual = 3.46067e-05, No Iterations 5
[INFO] MomentumPredictor: 287.865 [ms]
[INFO] MatrixAssemblyPI: 35.875 [ms]
[INFO] AdjustPhi: 3.472 [ms]
[INFO] ConstrainPressure: 0.002 [ms]
[INFO] MatrixAssemblyPII: 11.303 [ms]
[OGL LOG][Proc: 0]: global_index_init: 0.013 [ms]
[OGL LOG][Proc: 0]p_local_coeffs: call_update: 0 [ms]
[OGL LOG][Proc: 0]p_non_local_coeffs: call_update: 0 [ms]
[OGL LOG][Proc: 0]p: update_local_matrix_data: 6.318 [ms]
[OGL LOG][Proc: 0]p: update_non_local_matrix_data: 0.059 [ms]
[OGL LOG][Proc: 0]p: regenerate_distributed_matrix: 24.233 [ms]
[OGL LOG][Proc: 0]p_matrix: call_update: 24.8 [ms]
[OGL LOG][Proc: 0]p_rhs: call_update: 0.312 [ms]
[OGL LOG][Proc: 0]p: init_precond: 0.025 [ms]
[OGL LOG][StoppingCriterion.H:237] Creating stopping criterion with minIter 185 frequency 7
[OGL LOG][Proc: 0]p: generate_solver: 0.001 [ms]
[OGL LOG][Proc: 0]p: solve: 73.718 [ms]
[OGL LOG][Proc: 0]p: copy_x_back: 0.589 [ms]
[OGL LOG][lduLduBase.H:330] 
Statistics:
	Time per iteration: 244 [mu s]
	Time per residual norm calculation: 94.000000 [mu s]
	Time per iteration and DOF: 0.244000 [ns]
	Retrieve results bandwidth 3.395000 [GByte/s]
[OGL LOG][Proc: 0]p: solve_multi_gpu: 100.703 [ms]
nonecudaGKOCG:  Solving for p, Initial residual = 0.0159573, Final residual = 9.79062e-05, No Iterations 302
[INFO] SolveP: 108.536 [ms]
time step continuity errors : sum local = 1.41116e-08, global = 4.08286e-21, cumulative = -3.44251e-20
[INFO] ContinuityError: 4.435 [ms]
[INFO] CorrectBoundary: 0.101 [ms]
[INFO] PISOStep: 177.575 [ms]
[INFO] MatrixAssemblyPI: 34.353 [ms]
[INFO] AdjustPhi: 1.722 [ms]
[INFO] ConstrainPressure: 0.002 [ms]
[INFO] MatrixAssemblyPII: 11.201 [ms]
[OGL LOG][Proc: 0]: global_index_init: 0.034 [ms]
[OGL LOG][Proc: 0]p_local_coeffs: call_update: 0 [ms]
[OGL LOG][Proc: 0]p_non_local_coeffs: call_update: 0 [ms]
[OGL LOG][Proc: 0]p: update_local_matrix_data: 6.498 [ms]
[OGL LOG][Proc: 0]p: update_non_local_matrix_data: 0.06 [ms]
[OGL LOG][Proc: 0]p: regenerate_distributed_matrix: 22.699 [ms]
[OGL LOG][Proc: 0]p_matrix: call_update: 23.248 [ms]
[OGL LOG][Proc: 0]p_rhs: call_update: 0.296 [ms]
[OGL LOG][Proc: 0]p: init_precond: 0.024 [ms]
[OGL LOG][StoppingCriterion.H:237] Creating stopping criterion with minIter 181 frequency 7
[OGL LOG][Proc: 0]p: generate_solver: 0.001 [ms]
[OGL LOG][Proc: 0]p: solve: 73.537 [ms]
[OGL LOG][Proc: 0]p: copy_x_back: 0.6 [ms]
[OGL LOG][lduLduBase.H:330] 
Statistics:
	Time per iteration: 243 [mu s]
	Time per residual norm calculation: 93.000000 [mu s]
	Time per iteration and DOF: 0.243000 [ns]
	Retrieve results bandwidth 3.333000 [GByte/s]
[OGL LOG][Proc: 0]p: solve_multi_gpu: 98.681 [ms]
nonecudaGKOCG:  Solving for p, Initial residual = 0.0144251, Final residual = 8.56472e-05, No Iterations 302
[INFO] SolveP: 106.73 [ms]
time step continuity errors : sum local = 1.21223e-08, global = -1.43144e-21, cumulative = -3.58565e-20
[INFO] ContinuityError: 4.274 [ms]
[INFO] CorrectBoundary: 0.103 [ms]
[INFO] PISOStep: 172 [ms]
[INFO] TimeStep: 675.442 [ms]
ExecutionTime = 11.85 s  ClockTime = 12 s

Time = 0.0075

Courant Number mean: 0.0678723 max: 0.476383
[INFO] MatrixAssemblyU: 33.135 [ms]
DILUPBiCGStab:  Solving for Ux, Initial residual = 0.00543193, Final residual = 1.1107e-05, No Iterations 5
DILUPBiCGStab:  Solving for Uy, Initial residual = 0.0116562, Final residual = 1.04662e-05, No Iterations 5
DILUPBiCGStab:  Solving for Uz, Initial residual = 0.0233519, Final residual = 3.05677e-05, No Iterations 5
[INFO] MomentumPredictor: 291.401 [ms]
[INFO] MatrixAssemblyPI: 35.703 [ms]
[INFO] AdjustPhi: 2.477 [ms]
[INFO] ConstrainPressure: 0.002 [ms]
[INFO] MatrixAssemblyPII: 11.107 [ms]
[OGL LOG][Proc: 0]: global_index_init: 0.051 [ms]
[OGL LOG][Proc: 0]p_local_coeffs: call_update: 0 [ms]
[OGL LOG][Proc: 0]p_non_local_coeffs: call_update: 0 [ms]
[OGL LOG][Proc: 0]p: update_local_matrix_data: 6.324 [ms]
[OGL LOG][Proc: 0]p: update_non_local_matrix_data: 0.058 [ms]
[OGL LOG][Proc: 0]p: regenerate_distributed_matrix: 24.565 [ms]
[OGL LOG][Proc: 0]p_matrix: call_update: 25.158 [ms]
[OGL LOG][Proc: 0]p_rhs: call_update: 0.468 [ms]
[OGL LOG][Proc: 0]p: init_precond: 0.023 [ms]
[OGL LOG][StoppingCriterion.H:237] Creating stopping criterion with minIter 181 frequency 7
[OGL LOG][Proc: 0]p: generate_solver: 0.001 [ms]
[OGL LOG][Proc: 0]p: solve: 75.104 [ms]
[OGL LOG][Proc: 0]p: copy_x_back: 0.559 [ms]
[OGL LOG][lduLduBase.H:330] 
Statistics:
	Time per iteration: 243 [mu s]
	Time per residual norm calculation: 101.000000 [mu s]
	Time per iteration and DOF: 0.243000 [ns]
	Retrieve results bandwidth 3.577000 [GByte/s]
[OGL LOG][Proc: 0]p: solve_multi_gpu: 102.451 [ms]
nonecudaGKOCG:  Solving for p, Initial residual = 0.0138232, Final residual = 9.14826e-05, No Iterations 309
[INFO] SolveP: 110.725 [ms]
time step continuity errors : sum local = 1.39204e-08, global = 2.40006e-21, cumulative = -3.34564e-20
[INFO] ContinuityError: 4.42 [ms]
[INFO] CorrectBoundary: 0.118 [ms]
[INFO] PISOStep: 178.982 [ms]
[INFO] MatrixAssemblyPI: 34.415 [ms]
[INFO] AdjustPhi: 1.717 [ms]
[INFO] ConstrainPressure: 0.002 [ms]
[INFO] MatrixAssemblyPII: 12.834 [ms]
[OGL LOG][Proc: 0]: global_index_init: 0.014 [ms]
[OGL LOG][Proc: 0]p_local_coeffs: call_update: 0 [ms]
[OGL LOG][Proc: 0]p_non_local_coeffs: call_update: 0 [ms]
[OGL LOG][Proc: 0]p: update_local_matrix_data: 7.799 [ms]
[OGL LOG][Proc: 0]p: update_non_local_matrix_data: 0.131 [ms]
[OGL LOG][Proc: 0]p: regenerate_distributed_matrix: 24.513 [ms]
[OGL LOG][Proc: 0]p_matrix: call_update: 25.229 [ms]
[OGL LOG][Proc: 0]p_rhs: call_update: 0.297 [ms]
[OGL LOG][Proc: 0]p: init_precond: 0.024 [ms]
[OGL LOG][StoppingCriterion.H:237] Creating stopping criterion with minIter 185 frequency 7
[OGL LOG][Proc: 0]p: generate_solver: 0.003 [ms]
[OGL LOG][Proc: 0]p: solve: 73.489 [ms]
[OGL LOG][Proc: 0]p: copy_x_back: 0.776 [ms]
[OGL LOG][lduLduBase.H:330] 
Statistics:
	Time per iteration: 243 [mu s]
	Time per residual norm calculation: 96.000000 [mu s]
	Time per iteration and DOF: 0.243000 [ns]
	Retrieve results bandwidth 2.577000 [GByte/s]
[OGL LOG][Proc: 0]p: solve_multi_gpu: 100.817 [ms]
nonecudaGKOCG:  Solving for p, Initial residual = 0.0125882, Final residual = 8.91108e-05, No Iterations 302
[INFO] SolveP: 110.486 [ms]
time step continuity errors : sum local = 1.2794e-08, global = 2.14821e-21, cumulative = -3.13082e-20
[INFO] ContinuityError: 4.335 [ms]
[INFO] CorrectBoundary: 0.127 [ms]
[INFO] PISOStep: 179.45 [ms]
[INFO] TimeStep: 687.754 [ms]
ExecutionTime = 12.53 s  ClockTime = 13 s

Time = 0.008

Courant Number mean: 0.0692087 max: 0.476951
[INFO] MatrixAssemblyU: 36.002 [ms]
DILUPBiCGStab:  Solving for Ux, Initial residual = 0.0049849, Final residual = 1.01125e-05, No Iterations 5
DILUPBiCGStab:  Solving for Uy, Initial residual = 0.0107163, Final residual = 9.37583e-06, No Iterations 5
DILUPBiCGStab:  Solving for Uz, Initial residual = 0.0215629, Final residual = 3.09173e-05, No Iterations 5
[INFO] MomentumPredictor: 286.565 [ms]
[INFO] MatrixAssemblyPI: 36.137 [ms]
[INFO] AdjustPhi: 1.793 [ms]
[INFO] ConstrainPressure: 0.002 [ms]
[INFO] MatrixAssemblyPII: 11.351 [ms]
[OGL LOG][Proc: 0]: global_index_init: 0.007 [ms]
[OGL LOG][Proc: 0]p_local_coeffs: call_update: 0 [ms]
[OGL LOG][Proc: 0]p_non_local_coeffs: call_update: 0 [ms]
[OGL LOG][Proc: 0]p: update_local_matrix_data: 6.451 [ms]
[OGL LOG][Proc: 0]p: update_non_local_matrix_data: 0.054 [ms]
[OGL LOG][Proc: 0]p: regenerate_distributed_matrix: 23.455 [ms]
[OGL LOG][Proc: 0]p_matrix: call_update: 24.054 [ms]
[OGL LOG][Proc: 0]p_rhs: call_update: 0.297 [ms]
[OGL LOG][Proc: 0]p: init_precond: 0.025 [ms]
[OGL LOG][StoppingCriterion.H:237] Creating stopping criterion with minIter 181 frequency 7
[OGL LOG][Proc: 0]p: generate_solver: 0.001 [ms]
[OGL LOG][Proc: 0]p: solve: 75.28 [ms]
[OGL LOG][Proc: 0]p: copy_x_back: 0.53 [ms]
[OGL LOG][lduLduBase.H:330] 
Statistics:
	Time per iteration: 243 [mu s]
	Time per residual norm calculation: 94.000000 [mu s]
	Time per iteration and DOF: 0.243000 [ns]
	Retrieve results bandwidth 3.773000 [GByte/s]
[OGL LOG][Proc: 0]p: solve_multi_gpu: 101.123 [ms]
nonecudaGKOCG:  Solving for p, Initial residual = 0.0118193, Final residual = 9.45233e-05, No Iterations 309
[INFO] SolveP: 109.096 [ms]
time step continuity errors : sum local = 1.41726e-08, global = -4.83911e-21, cumulative = -3.61473e-20
[INFO] ContinuityError: 4.335 [ms]
[INFO] CorrectBoundary: 0.099 [ms]
[INFO] PISOStep: 176.367 [ms]
[INFO] MatrixAssemblyPI: 34.559 [ms]
[INFO] AdjustPhi: 1.673 [ms]
[INFO] ConstrainPressure: 0.002 [ms]
[INFO] MatrixAssemblyPII: 11.18 [ms]
[OGL LOG][Proc: 0]: global_index_init: 0.046 [ms]
[OGL LOG][Proc: 0]p_local_coeffs: call_update: 0 [ms]
[OGL LOG][Proc: 0]p_non_local_coeffs: call_update: 0 [ms]
[OGL LOG][Proc: 0]p: update_local_matrix_data: 6.574 [ms]
[OGL LOG][Proc: 0]p: update_non_local_matrix_data: 0.056 [ms]
[OGL LOG][Proc: 0]p: regenerate_distributed_matrix: 23.786 [ms]
[OGL LOG][Proc: 0]p_matrix: call_update: 24.407 [ms]
[OGL LOG][Proc: 0]p_rhs: call_update: 0.304 [ms]
[OGL LOG][Proc: 0]p: init_precond: 0.026 [ms]
[OGL LOG][StoppingCriterion.H:237] Creating stopping criterion with minIter 185 frequency 7
[OGL LOG][Proc: 0]p: generate_solver: 0.001 [ms]
[OGL LOG][Proc: 0]p: solve: 73.733 [ms]
[OGL LOG][Proc: 0]p: copy_x_back: 0.631 [ms]
[OGL LOG][lduLduBase.H:330] 
Statistics:
	Time per iteration: 244 [mu s]
	Time per residual norm calculation: 96.000000 [mu s]
	Time per iteration and DOF: 0.244000 [ns]
	Retrieve results bandwidth 3.169000 [GByte/s]
[OGL LOG][Proc: 0]p: solve_multi_gpu: 100.104 [ms]
nonecudaGKOCG:  Solving for p, Initial residual = 0.010976, Final residual = 9.43742e-05, No Iterations 302
[INFO] SolveP: 108.205 [ms]
time step continuity errors : sum local = 1.34625e-08, global = 5.18579e-21, cumulative = -3.09615e-20
[INFO] ContinuityError: 4.288 [ms]
[INFO] CorrectBoundary: 0.094 [ms]
[INFO] PISOStep: 173.928 [ms]
[INFO] TimeStep: 677.823 [ms]
ExecutionTime = 13.21 s  ClockTime = 14 s

Time = 0.0085

Courant Number mean: 0.0704534 max: 0.477458
[INFO] MatrixAssemblyU: 33.502 [ms]
DILUPBiCGStab:  Solving for Ux, Initial residual = 0.00459774, Final residual = 9.1855e-06, No Iterations 5
DILUPBiCGStab:  Solving for Uy, Initial residual = 0.00988377, Final residual = 8.75242e-06, No Iterations 5
DILUPBiCGStab:  Solving for Uz, Initial residual = 0.0202601, Final residual = 2.95034e-05, No Iterations 5
[INFO] MomentumPredictor: 288.773 [ms]
[INFO] MatrixAssemblyPI: 35.972 [ms]
[INFO] AdjustPhi: 1.748 [ms]
[INFO] ConstrainPressure: 0.002 [ms]
[INFO] MatrixAssemblyPII: 11.206 [ms]
[OGL LOG][Proc: 0]: global_index_init: 0.022 [ms]
[OGL LOG][Proc: 0]p_local_coeffs: call_update: 0 [ms]
[OGL LOG][Proc: 0]p_non_local_coeffs: call_update: 0 [ms]
[OGL LOG][Proc: 0]p: update_local_matrix_data: 6.525 [ms]
[OGL LOG][Proc: 0]p: update_non_local_matrix_data: 0.059 [ms]
[OGL LOG][Proc: 0]p: regenerate_distributed_matrix: 23.295 [ms]
[OGL LOG][Proc: 0]p_matrix: call_update: 23.975 [ms]
[OGL LOG][Proc: 0]p_rhs: call_update: 0.388 [ms]
[OGL LOG][Proc: 0]p: init_precond: 0.035 [ms]
[OGL LOG][StoppingCriterion.H:237] Creating stopping criterion with minIter 181 frequency 7
[OGL LOG][Proc: 0]p: generate_solver: 0.001 [ms]
[OGL LOG][Proc: 0]p: solve: 76.643 [ms]
[OGL LOG][Proc: 0]p: copy_x_back: 0.625 [ms]
[OGL LOG][lduLduBase.H:330] 
Statistics:
	Time per iteration: 242 [mu s]
	Time per residual norm calculation: 101.000000 [mu s]
	Time per iteration and DOF: 0.242000 [ns]
	Retrieve results bandwidth 3.200000 [GByte/s]
[OGL LOG][Proc: 0]p: solve_multi_gpu: 102.632 [ms]
nonecudaGKOCG:  Solving for p, Initial residual = 0.0106638, Final residual = 9.31877e-05, No Iterations 316
[INFO] SolveP: 110.671 [ms]
time step continuity errors : sum local = 1.48789e-08, global = 6.78009e-21, cumulative = -2.41815e-20
[INFO] ContinuityError: 4.378 [ms]
[INFO] CorrectBoundary: 0.1 [ms]
[INFO] PISOStep: 177.576 [ms]
[INFO] MatrixAssemblyPI: 34.576 [ms]
[INFO] AdjustPhi: 1.707 [ms]
[INFO] ConstrainPressure: 0.002 [ms]
[INFO] MatrixAssemblyPII: 11.223 [ms]
[OGL LOG][Proc: 0]: global_index_init: 0.013 [ms]
[OGL LOG][Proc: 0]p_local_coeffs: call_update: 0 [ms]
[OGL LOG][Proc: 0]p_non_local_coeffs: call_update: 0 [ms]
[OGL LOG][Proc: 0]p: update_local_matrix_data: 6.405 [ms]
[OGL LOG][Proc: 0]p: update_non_local_matrix_data: 0.059 [ms]
[OGL LOG][Proc: 0]p: regenerate_distributed_matrix: 25.267 [ms]
[OGL LOG][Proc: 0]p_matrix: call_update: 25.904 [ms]
[OGL LOG][Proc: 0]p_rhs: call_update: 0.28 [ms]
[OGL LOG][Proc: 0]p: init_precond: 0.023 [ms]
[OGL LOG][StoppingCriterion.H:237] Creating stopping criterion with minIter 189 frequency 7
[OGL LOG][Proc: 0]p: generate_solver: 0.001 [ms]
[OGL LOG][Proc: 0]p: solve: 73.481 [ms]
[OGL LOG][Proc: 0]p: copy_x_back: 0.52 [ms]
[OGL LOG][lduLduBase.H:330] 
Statistics:
	Time per iteration: 243 [mu s]
	Time per residual norm calculation: 94.000000 [mu s]
	Time per iteration and DOF: 0.243000 [ns]
	Retrieve results bandwidth 3.846000 [GByte/s]
[OGL LOG][Proc: 0]p: solve_multi_gpu: 101.107 [ms]
nonecudaGKOCG:  Solving for p, Initial residual = 0.0099516, Final residual = 9.48094e-05, No Iterations 302
[INFO] SolveP: 109.133 [ms]
time step continuity errors : sum local = 1.38324e-08, global = -4.36338e-23, cumulative = -2.42251e-20
[INFO] ContinuityError: 4.307 [ms]
[INFO] CorrectBoundary: 0.116 [ms]
[INFO] PISOStep: 174.863 [ms]
[INFO] TimeStep: 679.474 [ms]
ExecutionTime = 13.89 s  ClockTime = 14 s

Time = 0.009

Courant Number mean: 0.0716158 max: 0.477916
[INFO] MatrixAssemblyU: 33.205 [ms]
DILUPBiCGStab:  Solving for Ux, Initial residual = 0.00425029, Final residual = 8.48901e-06, No Iterations 5
DILUPBiCGStab:  Solving for Uy, Initial residual = 0.00917484, Final residual = 8.18162e-06, No Iterations 5
DILUPBiCGStab:  Solving for Uz, Initial residual = 0.0188535, Final residual = 3.29517e-05, No Iterations 5
[INFO] MomentumPredictor: 286.301 [ms]
[INFO] MatrixAssemblyPI: 36.188 [ms]
[INFO] AdjustPhi: 1.786 [ms]
[INFO] ConstrainPressure: 0.001 [ms]
[INFO] MatrixAssemblyPII: 11.162 [ms]
[OGL LOG][Proc: 0]: global_index_init: 0.015 [ms]
[OGL LOG][Proc: 0]p_local_coeffs: call_update: 0 [ms]
[OGL LOG][Proc: 0]p_non_local_coeffs: call_update: 0 [ms]
[OGL LOG][Proc: 0]p: update_local_matrix_data: 6.452 [ms]
[OGL LOG][Proc: 0]p: update_non_local_matrix_data: 0.057 [ms]
[OGL LOG][Proc: 0]p: regenerate_distributed_matrix: 23.076 [ms]
[OGL LOG][Proc: 0]p_matrix: call_update: 23.632 [ms]
[OGL LOG][Proc: 0]p_rhs: call_update: 0.299 [ms]
[OGL LOG][Proc: 0]p: init_precond: 0.027 [ms]
[OGL LOG][StoppingCriterion.H:237] Creating stopping criterion with minIter 181 frequency 7
[OGL LOG][Proc: 0]p: generate_solver: 0.001 [ms]
[OGL LOG][Proc: 0]p: solve: 76.737 [ms]
[OGL LOG][Proc: 0]p: copy_x_back: 0.581 [ms]
[OGL LOG][lduLduBase.H:330] 
Statistics:
	Time per iteration: 242 [mu s]
	Time per residual norm calculation: 98.000000 [mu s]
	Time per iteration and DOF: 0.242000 [ns]
	Retrieve results bandwidth 3.442000 [GByte/s]
[OGL LOG][Proc: 0]p: solve_multi_gpu: 102.227 [ms]
nonecudaGKOCG:  Solving for p, Initial residual = 0.0096232, Final residual = 9.78132e-05, No Iterations 316
[INFO] SolveP: 110.209 [ms]
time step continuity errors : sum local = 1.55743e-08, global = -1.62893e-21, cumulative = -2.5854e-20
[INFO] ContinuityError: 4.305 [ms]
[INFO] CorrectBoundary: 0.098 [ms]
[INFO] PISOStep: 177.379 [ms]
[INFO] MatrixAssemblyPI: 34.471 [ms]
[INFO] AdjustPhi: 1.7 [ms]
[INFO] ConstrainPressure: 0.001 [ms]
[INFO] MatrixAssemblyPII: 11.257 [ms]
[OGL LOG][Proc: 0]: global_index_init: 0.023 [ms]
[OGL LOG][Proc: 0]p_local_coeffs: call_update: 0 [ms]
[OGL LOG][Proc: 0]p_non_local_coeffs: call_update: 0 [ms]
[OGL LOG][Proc: 0]p: update_local_matrix_data: 6.482 [ms]
[OGL LOG][Proc: 0]p: update_non_local_matrix_data: 0.058 [ms]
[OGL LOG][Proc: 0]p: regenerate_distributed_matrix: 22.998 [ms]
[OGL LOG][Proc: 0]p_matrix: call_update: 23.704 [ms]
[OGL LOG][Proc: 0]p_rhs: call_update: 0.378 [ms]
[OGL LOG][Proc: 0]p: init_precond: 0.023 [ms]
[OGL LOG][StoppingCriterion.H:237] Creating stopping criterion with minIter 189 frequency 7
[OGL LOG][Proc: 0]p: generate_solver: 0.001 [ms]
[OGL LOG][Proc: 0]p: solve: 73.467 [ms]
[OGL LOG][Proc: 0]p: copy_x_back: 0.611 [ms]
[OGL LOG][lduLduBase.H:330] 
Statistics:
	Time per iteration: 243 [mu s]
	Time per residual norm calculation: 94.000000 [mu s]
	Time per iteration and DOF: 0.243000 [ns]
	Retrieve results bandwidth 3.273000 [GByte/s]
[OGL LOG][Proc: 0]p: solve_multi_gpu: 99.143 [ms]
nonecudaGKOCG:  Solving for p, Initial residual = 0.00905127, Final residual = 9.68322e-05, No Iterations 302
[INFO] SolveP: 107.154 [ms]
time step continuity errors : sum local = 1.40584e-08, global = 1.49203e-21, cumulative = -2.4362e-20
[INFO] ContinuityError: 4.337 [ms]
[INFO] CorrectBoundary: 0.098 [ms]
[INFO] PISOStep: 172.914 [ms]
[INFO] TimeStep: 674.534 [ms]
ExecutionTime = 14.56 s  ClockTime = 15 s

Time = 0.0095

Courant Number mean: 0.0727018 max: 0.478328
[INFO] MatrixAssemblyU: 32.755 [ms]
DILUPBiCGStab:  Solving for Ux, Initial residual = 0.0039551, Final residual = 7.82879e-06, No Iterations 5
DILUPBiCGStab:  Solving for Uy, Initial residual = 0.00851584, Final residual = 7.60982e-06, No Iterations 5
DILUPBiCGStab:  Solving for Uz, Initial residual = 0.017957, Final residual = 3.42261e-05, No Iterations 5
[INFO] MomentumPredictor: 288.07 [ms]
[INFO] MatrixAssemblyPI: 36.027 [ms]
[INFO] AdjustPhi: 1.758 [ms]
[INFO] ConstrainPressure: 0.002 [ms]
[INFO] MatrixAssemblyPII: 11.279 [ms]
[OGL LOG][Proc: 0]: global_index_init: 0.009 [ms]
[OGL LOG][Proc: 0]p_local_coeffs: call_update: 0 [ms]
[OGL LOG][Proc: 0]p_non_local_coeffs: call_update: 0 [ms]
[OGL LOG][Proc: 0]p: update_local_matrix_data: 6.388 [ms]
[OGL LOG][Proc: 0]p: update_non_local_matrix_data: 0.061 [ms]
[OGL LOG][Proc: 0]p: regenerate_distributed_matrix: 24.232 [ms]
[OGL LOG][Proc: 0]p_matrix: call_update: 24.924 [ms]
[OGL LOG][Proc: 0]p_rhs: call_update: 0.305 [ms]
[OGL LOG][Proc: 0]p: init_precond: 0.027 [ms]
[OGL LOG][StoppingCriterion.H:237] Creating stopping criterion with minIter 181 frequency 7
[OGL LOG][Proc: 0]p: generate_solver: 0.001 [ms]
[OGL LOG][Proc: 0]p: solve: 155.743 [ms]
[OGL LOG][Proc: 0]p: copy_x_back: 0.626 [ms]
[OGL LOG][lduLduBase.H:330] 
Statistics:
	Time per iteration: 226 [mu s]
	Time per residual norm calculation: 95.000000 [mu s]
	Time per iteration and DOF: 0.226000 [ns]
	Retrieve results bandwidth 3.194000 [GByte/s]
[OGL LOG][Proc: 0]p: solve_multi_gpu: 182.97 [ms]
nonecudaGKOCG:  Solving for p, Initial residual = 0.00898472, Final residual = 9.33503e-05, No Iterations 687
[INFO] SolveP: 190.9 [ms]
time step continuity errors : sum local = 1.3053e-08, global = 1.17492e-20, cumulative = -1.26128e-20
[INFO] ContinuityError: 4.396 [ms]
[INFO] CorrectBoundary: 0.104 [ms]
[INFO] PISOStep: 258.205 [ms]
[INFO] MatrixAssemblyPI: 34.322 [ms]
[INFO] AdjustPhi: 5.215 [ms]
[INFO] ConstrainPressure: 0.002 [ms]
[INFO] MatrixAssemblyPII: 11.507 [ms]
[OGL LOG][Proc: 0]: global_index_init: 0.028 [ms]
[OGL LOG][Proc: 0]p_local_coeffs: call_update: 0 [ms]
[OGL LOG][Proc: 0]p_non_local_coeffs: call_update: 0 [ms]
[OGL LOG][Proc: 0]p: update_local_matrix_data: 6.03 [ms]
[OGL LOG][Proc: 0]p: update_non_local_matrix_data: 0.06 [ms]
[OGL LOG][Proc: 0]p: regenerate_distributed_matrix: 24.791 [ms]
[OGL LOG][Proc: 0]p_matrix: call_update: 25.415 [ms]
[OGL LOG][Proc: 0]p_rhs: call_update: 0.499 [ms]
[OGL LOG][Proc: 0]p: init_precond: 0.027 [ms]
[OGL LOG][StoppingCriterion.H:237] Creating stopping criterion with minIter 412 frequency 11
[OGL LOG][Proc: 0]p: generate_solver: 0.001 [ms]
[OGL LOG][Proc: 0]p: solve: 148.956 [ms]
[OGL LOG][Proc: 0]p: copy_x_back: 0.618 [ms]
[OGL LOG][lduLduBase.H:330] 
Statistics:
	Time per iteration: 218 [mu s]
	Time per residual norm calculation: 92.000000 [mu s]
	Time per iteration and DOF: 0.218000 [ns]
	Retrieve results bandwidth 3.236000 [GByte/s]
[OGL LOG][Proc: 0]p: solve_multi_gpu: 177.151 [ms]
nonecudaGKOCG:  Solving for p, Initial residual = 0.00849582, Final residual = 9.88889e-05, No Iterations 683
[INFO] SolveP: 185.143 [ms]
time step continuity errors : sum local = 1.38312e-08, global = -9.6506e-21, cumulative = -2.22634e-20
[INFO] ContinuityError: 4.321 [ms]
[INFO] CorrectBoundary: 0.16 [ms]
[INFO] PISOStep: 256.21 [ms]
[INFO] TimeStep: 842.894 [ms]
ExecutionTime = 15.4 s  ClockTime = 16 s

Time = 0.01

Courant Number mean: 0.0737185 max: 0.478705
[INFO] MatrixAssemblyU: 32.856 [ms]
DILUPBiCGStab:  Solving for Ux, Initial residual = 0.00367929, Final residual = 7.26273e-06, No Iterations 5
DILUPBiCGStab:  Solving for Uy, Initial residual = 0.00794319, Final residual = 7.07623e-06, No Iterations 5
DILUPBiCGStab:  Solving for Uz, Initial residual = 0.0164348, Final residual = 2.42277e-05, No Iterations 5
[INFO] MomentumPredictor: 287.411 [ms]
[INFO] MatrixAssemblyPI: 35.986 [ms]
[INFO] AdjustPhi: 1.747 [ms]
[INFO] ConstrainPressure: 0.002 [ms]
[INFO] MatrixAssemblyPII: 11.284 [ms]
[OGL LOG][Proc: 0]: global_index_init: 0.011 [ms]
[OGL LOG][Proc: 0]p_local_coeffs: call_update: 0 [ms]
[OGL LOG][Proc: 0]p_non_local_coeffs: call_update: 0 [ms]
[OGL LOG][Proc: 0]p: update_local_matrix_data: 6.458 [ms]
[OGL LOG][Proc: 0]p: update_non_local_matrix_data: 0.06 [ms]
[OGL LOG][Proc: 0]p: regenerate_distributed_matrix: 23.762 [ms]
[OGL LOG][Proc: 0]p_matrix: call_update: 24.316 [ms]
[OGL LOG][Proc: 0]p_rhs: call_update: 0.275 [ms]
[OGL LOG][Proc: 0]p: init_precond: 0.024 [ms]
[OGL LOG][StoppingCriterion.H:237] Creating stopping criterion with minIter 409 frequency 11
[OGL LOG][Proc: 0]p: generate_solver: 0.001 [ms]
[OGL LOG][Proc: 0]p: solve: 151.459 [ms]
[OGL LOG][Proc: 0]p: copy_x_back: 0.604 [ms]
[OGL LOG][lduLduBase.H:330] 
Statistics:
	Time per iteration: 218 [mu s]
	Time per residual norm calculation: 92.000000 [mu s]
	Time per iteration and DOF: 0.218000 [ns]
	Retrieve results bandwidth 3.311000 [GByte/s]
[OGL LOG][Proc: 0]p: solve_multi_gpu: 177.691 [ms]
nonecudaGKOCG:  Solving for p, Initial residual = 0.00838909, Final residual = 6.05925e-05, No Iterations 694
[INFO] SolveP: 185.676 [ms]
time step continuity errors : sum local = 8.47665e-09, global = -5.93879e-21, cumulative = -2.82022e-20
[INFO] ContinuityError: 4.418 [ms]
[INFO] CorrectBoundary: 0.101 [ms]
[INFO] PISOStep: 253.247 [ms]
[INFO] MatrixAssemblyPI: 34.323 [ms]
[INFO] AdjustPhi: 1.728 [ms]
[INFO] ConstrainPressure: 0.002 [ms]
[INFO] MatrixAssemblyPII: 11.175 [ms]
[OGL LOG][Proc: 0]: global_index_init: 0.014 [ms]
[OGL LOG][Proc: 0]p_local_coeffs: call_update: 0 [ms]
[OGL LOG][Proc: 0]p_non_local_coeffs: call_update: 0 [ms]
[OGL LOG][Proc: 0]p: update_local_matrix_data: 6.538 [ms]
[OGL LOG][Proc: 0]p: update_non_local_matrix_data: 0.061 [ms]
[OGL LOG][Proc: 0]p: regenerate_distributed_matrix: 24.492 [ms]
[OGL LOG][Proc: 0]p_matrix: call_update: 25.047 [ms]
[OGL LOG][Proc: 0]p_rhs: call_update: 0.29 [ms]
[OGL LOG][Proc: 0]p: init_precond: 0.025 [ms]
[OGL LOG][StoppingCriterion.H:237] Creating stopping criterion with minIter 416 frequency 11
[OGL LOG][Proc: 0]p: generate_solver: 0.001 [ms]
[OGL LOG][Proc: 0]p: solve: 148.755 [ms]
[OGL LOG][Proc: 0]p: copy_x_back: 0.583 [ms]
[OGL LOG][lduLduBase.H:330] 
Statistics:
	Time per iteration: 217 [mu s]
	Time per residual norm calculation: 93.000000 [mu s]
	Time per iteration and DOF: 0.217000 [ns]
	Retrieve results bandwidth 3.430000 [GByte/s]
[OGL LOG][Proc: 0]p: solve_multi_gpu: 175.666 [ms]
nonecudaGKOCG:  Solving for p, Initial residual = 0.00794753, Final residual = 9.34588e-05, No Iterations 683
[INFO] SolveP: 183.75 [ms]
time step continuity errors : sum local = 1.30789e-08, global = -6.05726e-21, cumulative = -3.42595e-20
[INFO] ContinuityError: 4.452 [ms]
[INFO] CorrectBoundary: 0.144 [ms]
[INFO] PISOStep: 248.976 [ms]
[INFO] TimeStep: 827.926 [ms]
ExecutionTime = 16.22 s  ClockTime = 17 s

End

Finalising parallel run
