/*---------------------------------------------------------------------------*\
| =========                 |                                                 |
| \\      /  F ield         | OpenFOAM: The Open Source CFD Toolbox           |
|  \\    /   O peration     | Version:  2312                                  |
|   \\  /    A nd           | Website:  www.openfoam.com                      |
|    \\/     M anipulation  |                                                 |
\*---------------------------------------------------------------------------*/
Build  : a46b310f-20240104 OPENFOAM=2312 version=v2312
Arch   : "LSB;label=32;scalar=64"
Exec   : decomposePar -force
Date   : Feb 16 2024
Time   : 21:33:45
Host   : i20r02c04s04
PID    : 40398
--> FOAM Warning : 
    From Foam::fileName Foam::cwd_L()
    in file POSIX.C at line 552
    PWD is not the cwd() - reverting to physical description
I/O    : uncollated
--> FOAM Warning : 
    From Foam::fileName Foam::cwd_L()
    in file POSIX.C at line 552
    PWD is not the cwd() - reverting to physical description
Case   : /hppfs/scratch/0B/di35yan/lidDriven3D/workspace/6af46d8decafdcb110f2847084d5773b/case
nProcs : 1
trapFpe: Floating point exception trapping enabled (FOAM_SIGFPE).
fileModificationChecking : Monitoring run-time modified files using timeStampMaster (fileModificationSkew 5, maxFileModificationPolls 20)
allowSystemOperations : Allowing user-supplied system call operations

// * * * * * * * * * * * * * * * * * * * * * * * * * * * * * * * * * * * * * //
Create time

--> FOAM Warning : 
    From void* Foam::dlLibraryTable::openLibrary(const Foam::fileName&, bool)
    in file db/dynamicLibrary/dlLibraryTable/dlLibraryTable.C at line 188
    Could not load "libpetscFoam.so"
libpetscFoam.so: cannot open shared object file: No such file or directory


Decomposing mesh

Create mesh

Calculating distribution of cells
Decomposition method simple [4] (region region0)

Finished decomposition in 85.61 s

Calculating original mesh data

Distributing cells to processors

Distributing faces to processors

Distributing points to processors

Constructing processor meshes

Processor 0
    Number of cells = 31250000
    Number of points = 31563501
    Number of faces shared with processor 1 = 125000
    Number of faces shared with processor 2 = 125000
    Number of processor patches = 2
    Number of processor faces = 250000
    Number of boundary faces = 375000

Processor 1
    Number of cells = 31250000
    Number of points = 31563501
    Number of faces shared with processor 0 = 125000
    Number of faces shared with processor 3 = 125000
    Number of processor patches = 2
    Number of processor faces = 250000
    Number of boundary faces = 375000

Processor 2
    Number of cells = 31250000
    Number of points = 31563501
    Number of faces shared with processor 0 = 125000
    Number of faces shared with processor 3 = 125000
    Number of processor patches = 2
    Number of processor faces = 250000
    Number of boundary faces = 375000

Processor 3
    Number of cells = 31250000
    Number of points = 31563501
    Number of faces shared with processor 1 = 125000
    Number of faces shared with processor 2 = 125000
    Number of processor patches = 2
    Number of processor faces = 250000
    Number of boundary faces = 375000

Number of processor faces = 500000
Max number of cells = 31250000 (0% above average 3.125e+07)
Max number of processor patches = 2 (0% above average 2)
Max number of faces between processors = 250000 (0% above average 250000)

Time = 0

Processor 0: field transfer
--> FOAM Warning : 
    From void* Foam::dlLibraryTable::openLibrary(const Foam::fileName&, bool)
    in file db/dynamicLibrary/dlLibraryTable/dlLibraryTable.C at line 188
    Could not load "libpetscFoam.so"
libpetscFoam.so: cannot open shared object file: No such file or directory
Processor 1: field transfer
--> FOAM Warning : 
    From void* Foam::dlLibraryTable::openLibrary(const Foam::fileName&, bool)
    in file db/dynamicLibrary/dlLibraryTable/dlLibraryTable.C at line 188
    Could not load "libpetscFoam.so"
libpetscFoam.so: cannot open shared object file: No such file or directory
Processor 2: field transfer
--> FOAM Warning : 
    From void* Foam::dlLibraryTable::openLibrary(const Foam::fileName&, bool)
    in file db/dynamicLibrary/dlLibraryTable/dlLibraryTable.C at line 188
    Could not load "libpetscFoam.so"
libpetscFoam.so: cannot open shared object file: No such file or directory
Processor 3: field transfer
--> FOAM Warning : 
    From void* Foam::dlLibraryTable::openLibrary(const Foam::fileName&, bool)
    in file db/dynamicLibrary/dlLibraryTable/dlLibraryTable.C at line 188
    Could not load "libpetscFoam.so"
libpetscFoam.so: cannot open shared object file: No such file or directory

End

