/*---------------------------------------------------------------------------*\
| =========                 |                                                 |
| \\      /  F ield         | OpenFOAM: The Open Source CFD Toolbox           |
|  \\    /   O peration     | Version:  2306                                  |
|   \\  /    A nd           | Website:  www.openfoam.com                      |
|    \\/     M anipulation  |                                                 |
\*---------------------------------------------------------------------------*/
Build  : a6e826bd55-20230630 OPENFOAM=2306 version=v2306
Arch   : "LSB;label=32;scalar=64"
Exec   : icoFoam -parallel -case /tmp/lidDrivenCavity/workspace/e92aa2a1569e4435352252f4f0a802b7/case
Date   : Dec 16 2023
Time   : 11:46:54
Host   : nla-gpu2.ianm.kit.edu
PID    : 172723
I/O    : uncollated
Case   : /tmp/lidDrivenCavity/workspace/e92aa2a1569e4435352252f4f0a802b7/case
nProcs : 16
Hosts  :
(
    (nla-gpu2.ianm.kit.edu 16)
)
Pstream initialized with:
    floatTransfer      : false
    nProcsSimpleSum    : 0
    nonBlockingExchange: 0 (tuning: 0)
    exchange algorithm : -1
    commsType          : nonBlocking
    polling iterations : 0
trapFpe: Floating point exception trapping enabled (FOAM_SIGFPE).
fileModificationChecking : Monitoring run-time modified files using timeStampMaster (fileModificationSkew 5, maxFileModificationPolls 20)
allowSystemOperations : Allowing user-supplied system call operations

// * * * * * * * * * * * * * * * * * * * * * * * * * * * * * * * * * * * * * //
Create time

--> FOAM Warning : 
    From void* Foam::dlLibraryTable::openLibrary(const Foam::fileName&, bool)
    in file db/dynamicLibrary/dlLibraryTable/dlLibraryTable.C at line 188
    Could not load "libpetscFoam.so"
libpetscFoam.so: cannot open shared object file: No such file or directory
Create mesh for time = 0


PISO: Operating solver in PISO mode

Reading transportProperties

Reading field p

Reading field U

Reading/calculating face flux field phi


Starting time loop

Time = 0.0005

Courant Number mean: 8.62851e-18 max: 8.67362e-15
[INFO] MatrixAssemblyU: 8.932 [ms]
DILUPBiCGStab:  Solving for Ux, Initial residual = 1, Final residual = 0.00283431, No Iterations 5
DILUPBiCGStab:  Solving for Uy:  solution singularity
DILUPBiCGStab:  Solving for Uz:  solution singularity
[INFO] MomentumPredictor: 30.841 [ms]
[INFO] MatrixAssemblyPI: 6.234 [ms]
[INFO] AdjustPhi: 0.627 [ms]
[INFO] ConstrainPressure: 0.012 [ms]
[INFO] MatrixAssemblyPII: 1.886 [ms]
[OGL LOG][lduLduBase.H:119] Initialising OGL
	OGL commit:  1421b02+
	Branch: feat/on_device_permute 
	Build type: Release
	Ginkgo version: 1.7.0 ( develop)
	Ginkgo commit: sparse-communicator
	MPI is GPU aware: 1
	Forces host buffer based communication: 0
	CPU ranks per GPU: 1
	Matrix format: Coo
	End OGL_INFO
[OGL LOG][Proc: 0]: global_index_init: 13.391 [ms]
[OGL LOG][Proc: 0]p_local_cols: call_init: 0.038 [ms]
[OGL LOG][Proc: 0]p_local_rows: call_init: 0.003 [ms]
[OGL LOG][Proc: 0]p_local_ldu_map: call_init: 0.002 [ms]
[OGL LOG][Proc: 0]p_local_coeffs: call_init: 0.065 [ms]
[OGL LOG][Proc: 0]p_non_local_cols: call_init: 0.004 [ms]
[OGL LOG][Proc: 0]p_non_local_rows: call_init: 0.002 [ms]
[OGL LOG][Proc: 0]p_non_local_ldu_map: call_init: 0.003 [ms]
[OGL LOG][Proc: 0]p_non_local_coeffs: call_init: 0.002 [ms]
[OGL LOG][Proc: 0]p: init_local_sparsity_pattern: 15.212 [ms]
[OGL LOG][Proc: 0]p: init_non_local_sparsity_pattern: 0.287 [ms]
[OGL LOG][Proc: 0]p: update_local_matrix_data: 42.01 [ms]
[OGL LOG][Proc: 0]p: update_non_local_matrix_data: 0.041 [ms]
[OGL LOG][Proc: 0]device_partition: call_init: 0.112 [ms]
[OGL LOG][Proc: 0]p_matrix: call_init: 8.695 [ms]
[OGL LOG][Proc: 0]p_rhs: call_init: 0.623 [ms]
[OGL LOG][Proc: 0]p_solution: call_init: 0.202 [ms]
[OGL LOG][Preconditioner.H:121] Generate preconditioner BJ MaxBlockSize 1
[OGL LOG][Proc: 0]p: init_precond: 3.66 [ms]
[OGL LOG][StoppingCriterion.H:237] Creating stopping criterion with minIter 0 frequency 1
[OGL LOG][Proc: 0]p: generate_solver: 0.017 [ms]
[OGL LOG][Proc: 0]p: solve: 1769.91 [ms]
[OGL LOG][Proc: 0]p: copy_x_back: 0.288 [ms]
[OGL LOG][lduLduBase.H:330] 
Statistics:
	Time per iteration: 2266 [mu s]
	Time per residual norm calculation: 803.000000 [mu s]
	Time per iteration and DOF: 2.266000 [ns]
	Retrieve results bandwidth 1.736000 [GByte/s]
[OGL LOG][Proc: 0]p: solve_multi_gpu: 1797.99 [ms]
BJhipGKOCG:  Solving for p, Initial residual = 1, Final residual = 9.8364e-05, No Iterations 781
[INFO] SolveP: 2107.22 [ms]
time step continuity errors : sum local = 2.11349e-08, global = 4.22453e-22, cumulative = 4.22453e-22
[INFO] ContinuityError: 1.725 [ms]
[INFO] CorrectBoundary: 0.109 [ms]
[INFO] PISOStep: 2121.96 [ms]
[INFO] MatrixAssemblyPI: 7.314 [ms]
[INFO] AdjustPhi: 2.398 [ms]
[INFO] ConstrainPressure: 0.005 [ms]
[INFO] MatrixAssemblyPII: 2.389 [ms]
[OGL LOG][Proc: 0]: global_index_init: 0.079 [ms]
[OGL LOG][Proc: 0]p_local_coeffs: call_update: 0.004 [ms]
[OGL LOG][Proc: 0]p_non_local_coeffs: call_update: 0 [ms]
[OGL LOG][Proc: 0]p: update_local_matrix_data: 2.55 [ms]
[OGL LOG][Proc: 0]p: update_non_local_matrix_data: 0.028 [ms]
[OGL LOG][Proc: 0]p_matrix: call_update: 0.269 [ms]
[OGL LOG][Proc: 0]p_rhs: call_update: 0.114 [ms]
[OGL LOG][Preconditioner.H:121] Generate preconditioner BJ MaxBlockSize 1
[OGL LOG][Proc: 0]p: init_precond: 0.146 [ms]
[OGL LOG][StoppingCriterion.H:237] Creating stopping criterion with minIter 468 frequency 12
[OGL LOG][Proc: 0]p: generate_solver: 0.003 [ms]
[OGL LOG][Proc: 0]p: solve: 357.375 [ms]
[OGL LOG][Proc: 0]p: copy_x_back: 0.27 [ms]
[OGL LOG][lduLduBase.H:330] 
Statistics:
	Time per iteration: 464 [mu s]
	Time per residual norm calculation: 124.000000 [mu s]
	Time per iteration and DOF: 0.464000 [ns]
	Retrieve results bandwidth 1.851000 [GByte/s]
[OGL LOG][Proc: 0]p: solve_multi_gpu: 358.829 [ms]
BJhipGKOCG:  Solving for p, Initial residual = 0.731149, Final residual = 9.80831e-05, No Iterations 769
[INFO] SolveP: 362.086 [ms]
time step continuity errors : sum local = 2.78264e-08, global = 1.97174e-21, cumulative = 2.39419e-21
[INFO] ContinuityError: 1.648 [ms]
[INFO] CorrectBoundary: 0.051 [ms]
[INFO] PISOStep: 380.704 [ms]
[INFO] TimeStep: 2544.1 [ms]
ExecutionTime = 2.8 s  ClockTime = 2 s

Time = 0.001

Courant Number mean: 0.0215183 max: 0.377124
[INFO] MatrixAssemblyU: 5.189 [ms]
DILUPBiCGStab:  Solving for Ux, Initial residual = 0.150306, Final residual = 0.00127595, No Iterations 5
DILUPBiCGStab:  Solving for Uy, Initial residual = 0.368268, Final residual = 0.00250957, No Iterations 5
DILUPBiCGStab:  Solving for Uz, Initial residual = 0.986403, Final residual = 0.00613241, No Iterations 5
[INFO] MomentumPredictor: 56.48 [ms]
[INFO] MatrixAssemblyPI: 5.894 [ms]
[INFO] AdjustPhi: 0.421 [ms]
[INFO] ConstrainPressure: 0.003 [ms]
[INFO] MatrixAssemblyPII: 1.849 [ms]
[OGL LOG][Proc: 0]: global_index_init: 0.043 [ms]
[OGL LOG][Proc: 0]p_local_coeffs: call_update: 0 [ms]
[OGL LOG][Proc: 0]p_non_local_coeffs: call_update: 0 [ms]
[OGL LOG][Proc: 0]p: update_local_matrix_data: 2.7 [ms]
[OGL LOG][Proc: 0]p: update_non_local_matrix_data: 0.029 [ms]
[OGL LOG][Proc: 0]p_matrix: call_update: 0.239 [ms]
[OGL LOG][Proc: 0]p_rhs: call_update: 0.098 [ms]
[OGL LOG][Preconditioner.H:121] Generate preconditioner BJ MaxBlockSize 1
[OGL LOG][Proc: 0]p: init_precond: 0.136 [ms]
[OGL LOG][StoppingCriterion.H:237] Creating stopping criterion with minIter 461 frequency 10
[OGL LOG][Proc: 0]p: generate_solver: 0.003 [ms]
[OGL LOG][Proc: 0]p: solve: 407.795 [ms]
[OGL LOG][Proc: 0]p: copy_x_back: 0.178 [ms]
[OGL LOG][lduLduBase.H:330] 
Statistics:
	Time per iteration: 528 [mu s]
	Time per residual norm calculation: 121.000000 [mu s]
	Time per iteration and DOF: 0.528000 [ns]
	Retrieve results bandwidth 2.808000 [GByte/s]
[OGL LOG][Proc: 0]p: solve_multi_gpu: 408.706 [ms]
BJhipGKOCG:  Solving for p, Initial residual = 0.691536, Final residual = 7.00442e-05, No Iterations 771
[INFO] SolveP: 412.21 [ms]
time step continuity errors : sum local = 2.22915e-08, global = -1.76041e-21, cumulative = 6.33785e-22
[INFO] ContinuityError: 1.786 [ms]
[INFO] CorrectBoundary: 0.549 [ms]
[INFO] PISOStep: 426.132 [ms]
[INFO] MatrixAssemblyPI: 6.001 [ms]
[INFO] AdjustPhi: 1.24 [ms]
[INFO] ConstrainPressure: 0.004 [ms]
[INFO] MatrixAssemblyPII: 1.72 [ms]
[OGL LOG][Proc: 0]: global_index_init: 0.046 [ms]
[OGL LOG][Proc: 0]p_local_coeffs: call_update: 0 [ms]
[OGL LOG][Proc: 0]p_non_local_coeffs: call_update: 0 [ms]
[OGL LOG][Proc: 0]p: update_local_matrix_data: 2.426 [ms]
[OGL LOG][Proc: 0]p: update_non_local_matrix_data: 0.018 [ms]
[OGL LOG][Proc: 0]p_matrix: call_update: 0.244 [ms]
[OGL LOG][Proc: 0]p_rhs: call_update: 0.138 [ms]
[OGL LOG][Preconditioner.H:121] Generate preconditioner BJ MaxBlockSize 1
[OGL LOG][Proc: 0]p: init_precond: 0.134 [ms]
[OGL LOG][StoppingCriterion.H:237] Creating stopping criterion with minIter 462 frequency 8
[OGL LOG][Proc: 0]p: generate_solver: 0.002 [ms]
[OGL LOG][Proc: 0]p: solve: 345.445 [ms]
[OGL LOG][Proc: 0]p: copy_x_back: 0.191 [ms]
[OGL LOG][lduLduBase.H:330] 
Statistics:
	Time per iteration: 449 [mu s]
	Time per residual norm calculation: 121.000000 [mu s]
	Time per iteration and DOF: 0.449000 [ns]
	Retrieve results bandwidth 2.617000 [GByte/s]
[OGL LOG][Proc: 0]p: solve_multi_gpu: 347.154 [ms]
BJhipGKOCG:  Solving for p, Initial residual = 0.620725, Final residual = 6.50845e-05, No Iterations 769
[INFO] SolveP: 350.087 [ms]
time step continuity errors : sum local = 2.11259e-08, global = 2.452e-21, cumulative = 3.08579e-21
[INFO] ContinuityError: 1.066 [ms]
[INFO] CorrectBoundary: 0.049 [ms]
[INFO] PISOStep: 363.754 [ms]
[INFO] TimeStep: 852.618 [ms]
ExecutionTime = 3.65 s  ClockTime = 3 s

Time = 0.0015

Courant Number mean: 0.0324765 max: 0.441237
[INFO] MatrixAssemblyU: 4.492 [ms]
DILUPBiCGStab:  Solving for Ux, Initial residual = 0.0531239, Final residual = 0.000379605, No Iterations 5
DILUPBiCGStab:  Solving for Uy, Initial residual = 0.124771, Final residual = 0.000649556, No Iterations 5
DILUPBiCGStab:  Solving for Uz, Initial residual = 0.580179, Final residual = 0.00342307, No Iterations 5
[INFO] MomentumPredictor: 56.168 [ms]
[INFO] MatrixAssemblyPI: 5.828 [ms]
[INFO] AdjustPhi: 0.719 [ms]
[INFO] ConstrainPressure: 0.003 [ms]
[INFO] MatrixAssemblyPII: 1.896 [ms]
[OGL LOG][Proc: 0]: global_index_init: 0.055 [ms]
[OGL LOG][Proc: 0]p_local_coeffs: call_update: 0 [ms]
[OGL LOG][Proc: 0]p_non_local_coeffs: call_update: 0 [ms]
[OGL LOG][Proc: 0]p: update_local_matrix_data: 2.516 [ms]
[OGL LOG][Proc: 0]p: update_non_local_matrix_data: 0.018 [ms]
[OGL LOG][Proc: 0]p_matrix: call_update: 0.253 [ms]
[OGL LOG][Proc: 0]p_rhs: call_update: 0.122 [ms]
[OGL LOG][Preconditioner.H:121] Generate preconditioner BJ MaxBlockSize 1
[OGL LOG][Proc: 0]p: init_precond: 0.135 [ms]
[OGL LOG][StoppingCriterion.H:237] Creating stopping criterion with minIter 461 frequency 10
[OGL LOG][Proc: 0]p: generate_solver: 0.003 [ms]
[OGL LOG][Proc: 0]p: solve: 370.826 [ms]
[OGL LOG][Proc: 0]p: copy_x_back: 0.228 [ms]
[OGL LOG][lduLduBase.H:330] 
Statistics:
	Time per iteration: 487 [mu s]
	Time per residual norm calculation: 129.000000 [mu s]
	Time per iteration and DOF: 0.487000 [ns]
	Retrieve results bandwidth 2.192000 [GByte/s]
[OGL LOG][Proc: 0]p: solve_multi_gpu: 372.083 [ms]
BJhipGKOCG:  Solving for p, Initial residual = 0.633177, Final residual = 9.01625e-05, No Iterations 761
[INFO] SolveP: 375.166 [ms]
time step continuity errors : sum local = 2.0689e-08, global = 5.59575e-23, cumulative = 3.14175e-21
[INFO] ContinuityError: 1.082 [ms]
[INFO] CorrectBoundary: 0.072 [ms]
[INFO] PISOStep: 389.097 [ms]
[INFO] MatrixAssemblyPI: 6.555 [ms]
[INFO] AdjustPhi: 0.561 [ms]
[INFO] ConstrainPressure: 0.003 [ms]
[INFO] MatrixAssemblyPII: 2.487 [ms]
[OGL LOG][Proc: 0]: global_index_init: 0.035 [ms]
[OGL LOG][Proc: 0]p_local_coeffs: call_update: 0 [ms]
[OGL LOG][Proc: 0]p_non_local_coeffs: call_update: 0 [ms]
[OGL LOG][Proc: 0]p: update_local_matrix_data: 2.7 [ms]
[OGL LOG][Proc: 0]p: update_non_local_matrix_data: 0.032 [ms]
[OGL LOG][Proc: 0]p_matrix: call_update: 0.234 [ms]
[OGL LOG][Proc: 0]p_rhs: call_update: 0.097 [ms]
[OGL LOG][Preconditioner.H:121] Generate preconditioner BJ MaxBlockSize 1
[OGL LOG][Proc: 0]p: init_precond: 0.134 [ms]
[OGL LOG][StoppingCriterion.H:237] Creating stopping criterion with minIter 456 frequency 10
[OGL LOG][Proc: 0]p: generate_solver: 0.003 [ms]
[OGL LOG][Proc: 0]p: solve: 370.833 [ms]
[OGL LOG][Proc: 0]p: copy_x_back: 0.178 [ms]
[OGL LOG][lduLduBase.H:330] 
Statistics:
	Time per iteration: 487 [mu s]
	Time per residual norm calculation: 124.000000 [mu s]
	Time per iteration and DOF: 0.487000 [ns]
	Retrieve results bandwidth 2.808000 [GByte/s]
[OGL LOG][Proc: 0]p: solve_multi_gpu: 371.819 [ms]
BJhipGKOCG:  Solving for p, Initial residual = 0.580503, Final residual = 7.36074e-05, No Iterations 761
[INFO] SolveP: 374.996 [ms]
time step continuity errors : sum local = 1.64421e-08, global = -6.2953e-21, cumulative = -3.15356e-21
[INFO] ContinuityError: 1.862 [ms]
[INFO] CorrectBoundary: 0.52 [ms]
[INFO] PISOStep: 389.774 [ms]
[INFO] TimeStep: 841.016 [ms]
ExecutionTime = 4.48 s  ClockTime = 4 s

Time = 0.002

Courant Number mean: 0.0388747 max: 0.452918
[INFO] MatrixAssemblyU: 4.164 [ms]
DILUPBiCGStab:  Solving for Ux, Initial residual = 0.0319116, Final residual = 0.0001976, No Iterations 5
DILUPBiCGStab:  Solving for Uy, Initial residual = 0.0814137, Final residual = 0.000429156, No Iterations 5
DILUPBiCGStab:  Solving for Uz, Initial residual = 0.278802, Final residual = 0.00129892, No Iterations 5
[INFO] MomentumPredictor: 62.165 [ms]
[INFO] MatrixAssemblyPI: 5.82 [ms]
[INFO] AdjustPhi: 2.459 [ms]
[INFO] ConstrainPressure: 0.003 [ms]
[INFO] MatrixAssemblyPII: 1.868 [ms]
[OGL LOG][Proc: 0]: global_index_init: 0.045 [ms]
[OGL LOG][Proc: 0]p_local_coeffs: call_update: 0 [ms]
[OGL LOG][Proc: 0]p_non_local_coeffs: call_update: 0 [ms]
[OGL LOG][Proc: 0]p: update_local_matrix_data: 2.443 [ms]
[OGL LOG][Proc: 0]p: update_non_local_matrix_data: 0.018 [ms]
[OGL LOG][Proc: 0]p_matrix: call_update: 0.249 [ms]
[OGL LOG][Proc: 0]p_rhs: call_update: 0.081 [ms]
[OGL LOG][Preconditioner.H:121] Generate preconditioner BJ MaxBlockSize 1
[OGL LOG][Proc: 0]p: init_precond: 0.178 [ms]
[OGL LOG][StoppingCriterion.H:237] Creating stopping criterion with minIter 456 frequency 10
[OGL LOG][Proc: 0]p: generate_solver: 0.003 [ms]
[OGL LOG][Proc: 0]p: solve: 341.112 [ms]
[OGL LOG][Proc: 0]p: copy_x_back: 0.18 [ms]
[OGL LOG][lduLduBase.H:330] 
Statistics:
	Time per iteration: 448 [mu s]
	Time per residual norm calculation: 124.000000 [mu s]
	Time per iteration and DOF: 0.448000 [ns]
	Retrieve results bandwidth 2.777000 [GByte/s]
[OGL LOG][Proc: 0]p: solve_multi_gpu: 342.446 [ms]
BJhipGKOCG:  Solving for p, Initial residual = 0.413252, Final residual = 5.68921e-05, No Iterations 761
[INFO] SolveP: 345.401 [ms]
time step continuity errors : sum local = 1.11415e-08, global = -1.97113e-21, cumulative = -5.12468e-21
[INFO] ContinuityError: 0.85 [ms]
[INFO] CorrectBoundary: 0.041 [ms]
[INFO] PISOStep: 359.554 [ms]
[INFO] MatrixAssemblyPI: 5.655 [ms]
[INFO] AdjustPhi: 0.962 [ms]
[INFO] ConstrainPressure: 0.003 [ms]
[INFO] MatrixAssemblyPII: 1.881 [ms]
[OGL LOG][Proc: 0]: global_index_init: 0.032 [ms]
[OGL LOG][Proc: 0]p_local_coeffs: call_update: 0 [ms]
[OGL LOG][Proc: 0]p_non_local_coeffs: call_update: 0 [ms]
[OGL LOG][Proc: 0]p: update_local_matrix_data: 2.668 [ms]
[OGL LOG][Proc: 0]p: update_non_local_matrix_data: 0.017 [ms]
[OGL LOG][Proc: 0]p_matrix: call_update: 0.238 [ms]
[OGL LOG][Proc: 0]p_rhs: call_update: 0.077 [ms]
[OGL LOG][Preconditioner.H:121] Generate preconditioner BJ MaxBlockSize 1
[OGL LOG][Proc: 0]p: init_precond: 0.136 [ms]
[OGL LOG][StoppingCriterion.H:237] Creating stopping criterion with minIter 456 frequency 10
[OGL LOG][Proc: 0]p: generate_solver: 0.003 [ms]
[OGL LOG][Proc: 0]p: solve: 341.367 [ms]
[OGL LOG][Proc: 0]p: copy_x_back: 0.179 [ms]
[OGL LOG][lduLduBase.H:330] 
Statistics:
	Time per iteration: 448 [mu s]
	Time per residual norm calculation: 120.000000 [mu s]
	Time per iteration and DOF: 0.448000 [ns]
	Retrieve results bandwidth 2.793000 [GByte/s]
[OGL LOG][Proc: 0]p: solve_multi_gpu: 342.526 [ms]
BJhipGKOCG:  Solving for p, Initial residual = 0.351338, Final residual = 4.55645e-05, No Iterations 761
[INFO] SolveP: 345.65 [ms]
time step continuity errors : sum local = 9.01158e-09, global = 3.08189e-22, cumulative = -4.81649e-21
[INFO] ContinuityError: 1.301 [ms]
[INFO] CorrectBoundary: 0.204 [ms]
[INFO] PISOStep: 358.801 [ms]
[INFO] TimeStep: 786.484 [ms]
ExecutionTime = 5.26 s  ClockTime = 5 s

Time = 0.0025

Courant Number mean: 0.0439264 max: 0.459604
[INFO] MatrixAssemblyU: 4.209 [ms]
DILUPBiCGStab:  Solving for Ux, Initial residual = 0.0235188, Final residual = 0.000127017, No Iterations 5
DILUPBiCGStab:  Solving for Uy, Initial residual = 0.0515596, Final residual = 0.000259187, No Iterations 5
DILUPBiCGStab:  Solving for Uz, Initial residual = 0.100042, Final residual = 0.000510355, No Iterations 5
[INFO] MomentumPredictor: 56.431 [ms]
[INFO] MatrixAssemblyPI: 5.76 [ms]
[INFO] AdjustPhi: 0.695 [ms]
[INFO] ConstrainPressure: 0.003 [ms]
[INFO] MatrixAssemblyPII: 1.738 [ms]
[OGL LOG][Proc: 0]: global_index_init: 0.035 [ms]
[OGL LOG][Proc: 0]p_local_coeffs: call_update: 0 [ms]
[OGL LOG][Proc: 0]p_non_local_coeffs: call_update: 0 [ms]
[OGL LOG][Proc: 0]p: update_local_matrix_data: 2.576 [ms]
[OGL LOG][Proc: 0]p: update_non_local_matrix_data: 0.017 [ms]
[OGL LOG][Proc: 0]p_matrix: call_update: 0.24 [ms]
[OGL LOG][Proc: 0]p_rhs: call_update: 0.095 [ms]
[OGL LOG][Preconditioner.H:121] Generate preconditioner BJ MaxBlockSize 1
[OGL LOG][Proc: 0]p: init_precond: 0.129 [ms]
[OGL LOG][StoppingCriterion.H:237] Creating stopping criterion with minIter 456 frequency 10
[OGL LOG][Proc: 0]p: generate_solver: 0.003 [ms]
[OGL LOG][Proc: 0]p: solve: 323.404 [ms]
[OGL LOG][Proc: 0]p: copy_x_back: 0.179 [ms]
[OGL LOG][lduLduBase.H:330] 
Statistics:
	Time per iteration: 448 [mu s]
	Time per residual norm calculation: 129.000000 [mu s]
	Time per iteration and DOF: 0.448000 [ns]
	Retrieve results bandwidth 2.793000 [GByte/s]
[OGL LOG][Proc: 0]p: solve_multi_gpu: 324.617 [ms]
BJhipGKOCG:  Solving for p, Initial residual = 0.315418, Final residual = 8.2508e-05, No Iterations 721
[INFO] SolveP: 327.615 [ms]
time step continuity errors : sum local = 1.3336e-08, global = -5.26124e-21, cumulative = -1.00777e-20
[INFO] ContinuityError: 1.234 [ms]
[INFO] CorrectBoundary: 0.053 [ms]
[INFO] PISOStep: 339.953 [ms]
[INFO] MatrixAssemblyPI: 5.653 [ms]
[INFO] AdjustPhi: 1.198 [ms]
[INFO] ConstrainPressure: 0.003 [ms]
[INFO] MatrixAssemblyPII: 1.755 [ms]
[OGL LOG][Proc: 0]: global_index_init: 0.034 [ms]
[OGL LOG][Proc: 0]p_local_coeffs: call_update: 0 [ms]
[OGL LOG][Proc: 0]p_non_local_coeffs: call_update: 0 [ms]
[OGL LOG][Proc: 0]p: update_local_matrix_data: 2.66 [ms]
[OGL LOG][Proc: 0]p: update_non_local_matrix_data: 0.017 [ms]
[OGL LOG][Proc: 0]p_matrix: call_update: 0.243 [ms]
[OGL LOG][Proc: 0]p_rhs: call_update: 0.13 [ms]
[OGL LOG][Preconditioner.H:121] Generate preconditioner BJ MaxBlockSize 1
[OGL LOG][Proc: 0]p: init_precond: 0.134 [ms]
[OGL LOG][StoppingCriterion.H:237] Creating stopping criterion with minIter 432 frequency 9
[OGL LOG][Proc: 0]p: generate_solver: 0.002 [ms]
[OGL LOG][Proc: 0]p: solve: 339.806 [ms]
[OGL LOG][Proc: 0]p: copy_x_back: 0.27 [ms]
[OGL LOG][lduLduBase.H:330] 
Statistics:
	Time per iteration: 477 [mu s]
	Time per residual norm calculation: 131.000000 [mu s]
	Time per iteration and DOF: 0.477000 [ns]
	Retrieve results bandwidth 1.851000 [GByte/s]
[OGL LOG][Proc: 0]p: solve_multi_gpu: 341.102 [ms]
BJhipGKOCG:  Solving for p, Initial residual = 0.269843, Final residual = 9.426e-05, No Iterations 712
[INFO] SolveP: 344.321 [ms]
time step continuity errors : sum local = 1.5122e-08, global = -1.15211e-21, cumulative = -1.12298e-20
[INFO] ContinuityError: 1.448 [ms]
[INFO] CorrectBoundary: 0.054 [ms]
[INFO] PISOStep: 358.732 [ms]
[INFO] TimeStep: 760.376 [ms]
ExecutionTime = 6.02 s  ClockTime = 6 s

Time = 0.003

Courant Number mean: 0.0479663 max: 0.463843
[INFO] MatrixAssemblyU: 5.376 [ms]
DILUPBiCGStab:  Solving for Ux, Initial residual = 0.0178993, Final residual = 9.39215e-05, No Iterations 5
DILUPBiCGStab:  Solving for Uy, Initial residual = 0.0401559, Final residual = 0.000138742, No Iterations 5
DILUPBiCGStab:  Solving for Uz, Initial residual = 0.0867235, Final residual = 0.000417569, No Iterations 5
[INFO] MomentumPredictor: 61.19 [ms]
[INFO] MatrixAssemblyPI: 6.01 [ms]
[INFO] AdjustPhi: 4.492 [ms]
[INFO] ConstrainPressure: 0.003 [ms]
[INFO] MatrixAssemblyPII: 1.774 [ms]
[OGL LOG][Proc: 0]: global_index_init: 0.034 [ms]
[OGL LOG][Proc: 0]p_local_coeffs: call_update: 0 [ms]
[OGL LOG][Proc: 0]p_non_local_coeffs: call_update: 0 [ms]
[OGL LOG][Proc: 0]p: update_local_matrix_data: 2.619 [ms]
[OGL LOG][Proc: 0]p: update_non_local_matrix_data: 0.029 [ms]
[OGL LOG][Proc: 0]p_matrix: call_update: 0.247 [ms]
[OGL LOG][Proc: 0]p_rhs: call_update: 0.087 [ms]
[OGL LOG][Preconditioner.H:121] Generate preconditioner BJ MaxBlockSize 1
[OGL LOG][Proc: 0]p: init_precond: 0.127 [ms]
[OGL LOG][StoppingCriterion.H:237] Creating stopping criterion with minIter 427 frequency 9
[OGL LOG][Proc: 0]p: generate_solver: 0.003 [ms]
[OGL LOG][Proc: 0]p: solve: 349.076 [ms]
[OGL LOG][Proc: 0]p: copy_x_back: 0.18 [ms]
[OGL LOG][lduLduBase.H:330] 
Statistics:
	Time per iteration: 490 [mu s]
	Time per residual norm calculation: 121.000000 [mu s]
	Time per iteration and DOF: 0.490000 [ns]
	Retrieve results bandwidth 2.777000 [GByte/s]
[OGL LOG][Proc: 0]p: solve_multi_gpu: 350.063 [ms]
BJhipGKOCG:  Solving for p, Initial residual = 0.19724, Final residual = 9.70293e-05, No Iterations 712
[INFO] SolveP: 353.14 [ms]
time step continuity errors : sum local = 1.51371e-08, global = -6.90567e-21, cumulative = -1.81355e-20
[INFO] ContinuityError: 1.972 [ms]
[INFO] CorrectBoundary: 0.218 [ms]
[INFO] PISOStep: 370.478 [ms]
[INFO] MatrixAssemblyPI: 5.985 [ms]
[INFO] AdjustPhi: 2.108 [ms]
[INFO] ConstrainPressure: 0.008 [ms]
[INFO] MatrixAssemblyPII: 1.962 [ms]
[OGL LOG][Proc: 0]: global_index_init: 0.043 [ms]
[OGL LOG][Proc: 0]p_local_coeffs: call_update: 0 [ms]
[OGL LOG][Proc: 0]p_non_local_coeffs: call_update: 0 [ms]
[OGL LOG][Proc: 0]p: update_local_matrix_data: 2.581 [ms]
[OGL LOG][Proc: 0]p: update_non_local_matrix_data: 0.018 [ms]
[OGL LOG][Proc: 0]p_matrix: call_update: 0.246 [ms]
[OGL LOG][Proc: 0]p_rhs: call_update: 0.072 [ms]
[OGL LOG][Preconditioner.H:121] Generate preconditioner BJ MaxBlockSize 1
[OGL LOG][Proc: 0]p: init_precond: 0.137 [ms]
[OGL LOG][StoppingCriterion.H:237] Creating stopping criterion with minIter 427 frequency 8
[OGL LOG][Proc: 0]p: generate_solver: 0.004 [ms]
[OGL LOG][Proc: 0]p: solve: 321.535 [ms]
[OGL LOG][Proc: 0]p: copy_x_back: 0.185 [ms]
[OGL LOG][lduLduBase.H:330] 
Statistics:
	Time per iteration: 450 [mu s]
	Time per residual norm calculation: 124.000000 [mu s]
	Time per iteration and DOF: 0.450000 [ns]
	Retrieve results bandwidth 2.702000 [GByte/s]
[OGL LOG][Proc: 0]p: solve_multi_gpu: 322.83 [ms]
BJhipGKOCG:  Solving for p, Initial residual = 0.163994, Final residual = 9.25831e-05, No Iterations 713
[INFO] SolveP: 325.931 [ms]
time step continuity errors : sum local = 1.4457e-08, global = -2.67216e-21, cumulative = -2.08077e-20
[INFO] ContinuityError: 0.921 [ms]
[INFO] CorrectBoundary: 0.053 [ms]
[INFO] PISOStep: 340.863 [ms]
[INFO] TimeStep: 779.298 [ms]
ExecutionTime = 6.8 s  ClockTime = 6 s

Time = 0.0035

Courant Number mean: 0.0513755 max: 0.466723
[INFO] MatrixAssemblyU: 4.361 [ms]
DILUPBiCGStab:  Solving for Ux, Initial residual = 0.0146425, Final residual = 6.72267e-05, No Iterations 5
DILUPBiCGStab:  Solving for Uy, Initial residual = 0.0317845, Final residual = 0.000119675, No Iterations 5
DILUPBiCGStab:  Solving for Uz, Initial residual = 0.0572575, Final residual = 0.000252876, No Iterations 5
[INFO] MomentumPredictor: 55.536 [ms]
[INFO] MatrixAssemblyPI: 5.731 [ms]
[INFO] AdjustPhi: 0.823 [ms]
[INFO] ConstrainPressure: 0.003 [ms]
[INFO] MatrixAssemblyPII: 1.771 [ms]
[OGL LOG][Proc: 0]: global_index_init: 0.041 [ms]
[OGL LOG][Proc: 0]p_local_coeffs: call_update: 0 [ms]
[OGL LOG][Proc: 0]p_non_local_coeffs: call_update: 0 [ms]
[OGL LOG][Proc: 0]p: update_local_matrix_data: 2.577 [ms]
[OGL LOG][Proc: 0]p: update_non_local_matrix_data: 0.018 [ms]
[OGL LOG][Proc: 0]p_matrix: call_update: 0.244 [ms]
[OGL LOG][Proc: 0]p_rhs: call_update: 0.157 [ms]
[OGL LOG][Preconditioner.H:121] Generate preconditioner BJ MaxBlockSize 1
[OGL LOG][Proc: 0]p: init_precond: 0.145 [ms]
[OGL LOG][StoppingCriterion.H:237] Creating stopping criterion with minIter 427 frequency 9
[OGL LOG][Proc: 0]p: generate_solver: 0.003 [ms]
[OGL LOG][Proc: 0]p: solve: 212.378 [ms]
[OGL LOG][Proc: 0]p: copy_x_back: 0.182 [ms]
[OGL LOG][lduLduBase.H:330] 
Statistics:
	Time per iteration: 470 [mu s]
	Time per residual norm calculation: 330.000000 [mu s]
	Time per iteration and DOF: 0.470000 [ns]
	Retrieve results bandwidth 2.747000 [GByte/s]
[OGL LOG][Proc: 0]p: solve_multi_gpu: 213.56 [ms]
BJhipGKOCG:  Solving for p, Initial residual = 0.13952, Final residual = 9.78464e-05, No Iterations 451
[INFO] SolveP: 216.754 [ms]
time step continuity errors : sum local = 1.57979e-08, global = -2.26896e-21, cumulative = -2.30766e-20
[INFO] ContinuityError: 1.861 [ms]
[INFO] CorrectBoundary: 0.377 [ms]
[INFO] PISOStep: 230.388 [ms]
[INFO] MatrixAssemblyPI: 5.978 [ms]
[INFO] AdjustPhi: 1.049 [ms]
[INFO] ConstrainPressure: 0.008 [ms]
[INFO] MatrixAssemblyPII: 1.964 [ms]
[OGL LOG][Proc: 0]: global_index_init: 0.038 [ms]
[OGL LOG][Proc: 0]p_local_coeffs: call_update: 0 [ms]
[OGL LOG][Proc: 0]p_non_local_coeffs: call_update: 0 [ms]
[OGL LOG][Proc: 0]p: update_local_matrix_data: 2.788 [ms]
[OGL LOG][Proc: 0]p: update_non_local_matrix_data: 0.017 [ms]
[OGL LOG][Proc: 0]p_matrix: call_update: 0.24 [ms]
[OGL LOG][Proc: 0]p_rhs: call_update: 0.075 [ms]
[OGL LOG][Preconditioner.H:121] Generate preconditioner BJ MaxBlockSize 1
[OGL LOG][Proc: 0]p: init_precond: 0.128 [ms]
[OGL LOG][StoppingCriterion.H:237] Creating stopping criterion with minIter 270 frequency 13
[OGL LOG][Proc: 0]p: generate_solver: 0.003 [ms]
[OGL LOG][Proc: 0]p: solve: 145.869 [ms]
[OGL LOG][Proc: 0]p: copy_x_back: 0.184 [ms]
[OGL LOG][lduLduBase.H:330] 
Statistics:
	Time per iteration: 447 [mu s]
	Time per residual norm calculation: 119.000000 [mu s]
	Time per iteration and DOF: 0.447000 [ns]
	Retrieve results bandwidth 2.717000 [GByte/s]
[OGL LOG][Proc: 0]p: solve_multi_gpu: 146.944 [ms]
BJhipGKOCG:  Solving for p, Initial residual = 0.116639, Final residual = 9.6502e-05, No Iterations 326
[INFO] SolveP: 150.222 [ms]
time step continuity errors : sum local = 1.46737e-08, global = 2.99791e-21, cumulative = -2.00787e-20
[INFO] ContinuityError: 1.066 [ms]
[INFO] CorrectBoundary: 0.072 [ms]
[INFO] PISOStep: 163.591 [ms]
[INFO] TimeStep: 455.121 [ms]
ExecutionTime = 7.25 s  ClockTime = 7 s

Time = 0.004

Courant Number mean: 0.0543148 max: 0.468931
[INFO] MatrixAssemblyU: 4.187 [ms]
DILUPBiCGStab:  Solving for Ux, Initial residual = 0.0122829, Final residual = 5.12849e-05, No Iterations 5
DILUPBiCGStab:  Solving for Uy, Initial residual = 0.0265452, Final residual = 7.80302e-05, No Iterations 5
DILUPBiCGStab:  Solving for Uz, Initial residual = 0.0519171, Final residual = 0.00017702, No Iterations 5
[INFO] MomentumPredictor: 55.559 [ms]
[INFO] MatrixAssemblyPI: 5.721 [ms]
[INFO] AdjustPhi: 0.703 [ms]
[INFO] ConstrainPressure: 0.003 [ms]
[INFO] MatrixAssemblyPII: 1.676 [ms]
[OGL LOG][Proc: 0]: global_index_init: 0.039 [ms]
[OGL LOG][Proc: 0]p_local_coeffs: call_update: 0 [ms]
[OGL LOG][Proc: 0]p_non_local_coeffs: call_update: 0 [ms]
[OGL LOG][Proc: 0]p: update_local_matrix_data: 2.517 [ms]
[OGL LOG][Proc: 0]p: update_non_local_matrix_data: 0.018 [ms]
[OGL LOG][Proc: 0]p_matrix: call_update: 0.238 [ms]
[OGL LOG][Proc: 0]p_rhs: call_update: 0.135 [ms]
[OGL LOG][Preconditioner.H:121] Generate preconditioner BJ MaxBlockSize 1
[OGL LOG][Proc: 0]p: init_precond: 0.128 [ms]
[OGL LOG][StoppingCriterion.H:237] Creating stopping criterion with minIter 195 frequency 6
[OGL LOG][Proc: 0]p: generate_solver: 0.003 [ms]
[OGL LOG][Proc: 0]p: solve: 147.06 [ms]
[OGL LOG][Proc: 0]p: copy_x_back: 0.18 [ms]
[OGL LOG][lduLduBase.H:330] 
Statistics:
	Time per iteration: 452 [mu s]
	Time per residual norm calculation: 118.000000 [mu s]
	Time per iteration and DOF: 0.452000 [ns]
	Retrieve results bandwidth 2.777000 [GByte/s]
[OGL LOG][Proc: 0]p: solve_multi_gpu: 148.327 [ms]
BJhipGKOCG:  Solving for p, Initial residual = 0.0908468, Final residual = 8.46996e-05, No Iterations 325
[INFO] SolveP: 151.272 [ms]
time step continuity errors : sum local = 1.23372e-08, global = -1.0118e-21, cumulative = -2.10905e-20
[INFO] ContinuityError: 0.896 [ms]
[INFO] CorrectBoundary: 0.208 [ms]
[INFO] PISOStep: 163.215 [ms]
[INFO] MatrixAssemblyPI: 5.574 [ms]
[INFO] AdjustPhi: 0.754 [ms]
[INFO] ConstrainPressure: 0.003 [ms]
[INFO] MatrixAssemblyPII: 2.014 [ms]
[OGL LOG][Proc: 0]: global_index_init: 0.035 [ms]
[OGL LOG][Proc: 0]p_local_coeffs: call_update: 0 [ms]
[OGL LOG][Proc: 0]p_non_local_coeffs: call_update: 0 [ms]
[OGL LOG][Proc: 0]p: update_local_matrix_data: 2.595 [ms]
[OGL LOG][Proc: 0]p: update_non_local_matrix_data: 0.019 [ms]
[OGL LOG][Proc: 0]p_matrix: call_update: 0.238 [ms]
[OGL LOG][Proc: 0]p_rhs: call_update: 0.163 [ms]
[OGL LOG][Preconditioner.H:121] Generate preconditioner BJ MaxBlockSize 1
[OGL LOG][Proc: 0]p: init_precond: 0.131 [ms]
[OGL LOG][StoppingCriterion.H:237] Creating stopping criterion with minIter 195 frequency 6
[OGL LOG][Proc: 0]p: generate_solver: 0.003 [ms]
[OGL LOG][Proc: 0]p: solve: 144.136 [ms]
[OGL LOG][Proc: 0]p: copy_x_back: 0.188 [ms]
[OGL LOG][lduLduBase.H:330] 
Statistics:
	Time per iteration: 451 [mu s]
	Time per residual norm calculation: 123.000000 [mu s]
	Time per iteration and DOF: 0.451000 [ns]
	Retrieve results bandwidth 2.659000 [GByte/s]
[OGL LOG][Proc: 0]p: solve_multi_gpu: 145.416 [ms]
BJhipGKOCG:  Solving for p, Initial residual = 0.0751373, Final residual = 9.28574e-05, No Iterations 319
[INFO] SolveP: 148.477 [ms]
time step continuity errors : sum local = 1.35078e-08, global = 2.81081e-21, cumulative = -1.82797e-20
[INFO] ContinuityError: 0.921 [ms]
[INFO] CorrectBoundary: 0.057 [ms]
[INFO] PISOStep: 160.568 [ms]
[INFO] TimeStep: 384.683 [ms]
ExecutionTime = 7.63 s  ClockTime = 7 s

Time = 0.0045

Courant Number mean: 0.0568923 max: 0.470635
[INFO] MatrixAssemblyU: 4.2 [ms]
DILUPBiCGStab:  Solving for Ux, Initial residual = 0.0105347, Final residual = 3.97974e-05, No Iterations 5
DILUPBiCGStab:  Solving for Uy, Initial residual = 0.0226905, Final residual = 6.80826e-05, No Iterations 5
DILUPBiCGStab:  Solving for Uz, Initial residual = 0.0434013, Final residual = 0.000129189, No Iterations 5
[INFO] MomentumPredictor: 56.659 [ms]
[INFO] MatrixAssemblyPI: 5.774 [ms]
[INFO] AdjustPhi: 0.648 [ms]
[INFO] ConstrainPressure: 0.003 [ms]
[INFO] MatrixAssemblyPII: 1.805 [ms]
[OGL LOG][Proc: 0]: global_index_init: 0.033 [ms]
[OGL LOG][Proc: 0]p_local_coeffs: call_update: 0 [ms]
[OGL LOG][Proc: 0]p_non_local_coeffs: call_update: 0 [ms]
[OGL LOG][Proc: 0]p: update_local_matrix_data: 2.633 [ms]
[OGL LOG][Proc: 0]p: update_non_local_matrix_data: 0.019 [ms]
[OGL LOG][Proc: 0]p_matrix: call_update: 0.253 [ms]
[OGL LOG][Proc: 0]p_rhs: call_update: 0.113 [ms]
[OGL LOG][Preconditioner.H:121] Generate preconditioner BJ MaxBlockSize 1
[OGL LOG][Proc: 0]p: init_precond: 0.126 [ms]
[OGL LOG][StoppingCriterion.H:237] Creating stopping criterion with minIter 191 frequency 6
[OGL LOG][Proc: 0]p: generate_solver: 0.003 [ms]
[OGL LOG][Proc: 0]p: solve: 153.336 [ms]
[OGL LOG][Proc: 0]p: copy_x_back: 0.271 [ms]
[OGL LOG][lduLduBase.H:330] 
Statistics:
	Time per iteration: 471 [mu s]
	Time per residual norm calculation: 126.000000 [mu s]
	Time per iteration and DOF: 0.471000 [ns]
	Retrieve results bandwidth 1.845000 [GByte/s]
[OGL LOG][Proc: 0]p: solve_multi_gpu: 154.641 [ms]
BJhipGKOCG:  Solving for p, Initial residual = 0.0666915, Final residual = 9.53819e-05, No Iterations 325
[INFO] SolveP: 157.813 [ms]
time step continuity errors : sum local = 1.53399e-08, global = 4.00221e-21, cumulative = -1.42775e-20
[INFO] ContinuityError: 0.868 [ms]
[INFO] CorrectBoundary: 0.052 [ms]
[INFO] PISOStep: 171.184 [ms]
[INFO] MatrixAssemblyPI: 6.32 [ms]
[INFO] AdjustPhi: 0.302 [ms]
[INFO] ConstrainPressure: 0.003 [ms]
[INFO] MatrixAssemblyPII: 2.253 [ms]
[OGL LOG][Proc: 0]: global_index_init: 0.039 [ms]
[OGL LOG][Proc: 0]p_local_coeffs: call_update: 0 [ms]
[OGL LOG][Proc: 0]p_non_local_coeffs: call_update: 0 [ms]
[OGL LOG][Proc: 0]p: update_local_matrix_data: 2.824 [ms]
[OGL LOG][Proc: 0]p: update_non_local_matrix_data: 0.031 [ms]
[OGL LOG][Proc: 0]p_matrix: call_update: 0.241 [ms]
[OGL LOG][Proc: 0]p_rhs: call_update: 0.116 [ms]
[OGL LOG][Preconditioner.H:121] Generate preconditioner BJ MaxBlockSize 1
[OGL LOG][Proc: 0]p: init_precond: 0.135 [ms]
[OGL LOG][StoppingCriterion.H:237] Creating stopping criterion with minIter 195 frequency 6
[OGL LOG][Proc: 0]p: generate_solver: 0.003 [ms]
[OGL LOG][Proc: 0]p: solve: 169.044 [ms]
[OGL LOG][Proc: 0]p: copy_x_back: 0.176 [ms]
[OGL LOG][lduLduBase.H:330] 
Statistics:
	Time per iteration: 529 [mu s]
	Time per residual norm calculation: 119.000000 [mu s]
	Time per iteration and DOF: 0.529000 [ns]
	Retrieve results bandwidth 2.840000 [GByte/s]
[OGL LOG][Proc: 0]p: solve_multi_gpu: 169.938 [ms]
BJhipGKOCG:  Solving for p, Initial residual = 0.055624, Final residual = 8.26567e-05, No Iterations 319
[INFO] SolveP: 173.416 [ms]
time step continuity errors : sum local = 1.24107e-08, global = -3.99383e-21, cumulative = -1.82713e-20
[INFO] ContinuityError: 1.897 [ms]
[INFO] CorrectBoundary: 0.359 [ms]
[INFO] PISOStep: 187.777 [ms]
[INFO] TimeStep: 421.066 [ms]
ExecutionTime = 8.04 s  ClockTime = 8 s

Time = 0.005

Courant Number mean: 0.059188 max: 0.47203
[INFO] MatrixAssemblyU: 3.918 [ms]
DILUPBiCGStab:  Solving for Ux, Initial residual = 0.00921634, Final residual = 3.3218e-05, No Iterations 5
DILUPBiCGStab:  Solving for Uy, Initial residual = 0.0197567, Final residual = 5.13628e-05, No Iterations 5
DILUPBiCGStab:  Solving for Uz, Initial residual = 0.0386084, Final residual = 0.000104661, No Iterations 5
[INFO] MomentumPredictor: 54.431 [ms]
[INFO] MatrixAssemblyPI: 5.714 [ms]
[INFO] AdjustPhi: 0.687 [ms]
[INFO] ConstrainPressure: 0.004 [ms]
[INFO] MatrixAssemblyPII: 1.752 [ms]
[OGL LOG][Proc: 0]: global_index_init: 0.052 [ms]
[OGL LOG][Proc: 0]p_local_coeffs: call_update: 0 [ms]
[OGL LOG][Proc: 0]p_non_local_coeffs: call_update: 0 [ms]
[OGL LOG][Proc: 0]p: update_local_matrix_data: 2.548 [ms]
[OGL LOG][Proc: 0]p: update_non_local_matrix_data: 0.018 [ms]
[OGL LOG][Proc: 0]p_matrix: call_update: 0.246 [ms]
[OGL LOG][Proc: 0]p_rhs: call_update: 0.086 [ms]
[OGL LOG][Preconditioner.H:121] Generate preconditioner BJ MaxBlockSize 1
[OGL LOG][Proc: 0]p: init_precond: 0.136 [ms]
[OGL LOG][StoppingCriterion.H:237] Creating stopping criterion with minIter 191 frequency 5
[OGL LOG][Proc: 0]p: generate_solver: 0.003 [ms]
[OGL LOG][Proc: 0]p: solve: 156.979 [ms]
[OGL LOG][Proc: 0]p: copy_x_back: 0.179 [ms]
[OGL LOG][lduLduBase.H:330] 
Statistics:
	Time per iteration: 496 [mu s]
	Time per residual norm calculation: 121.000000 [mu s]
	Time per iteration and DOF: 0.496000 [ns]
	Retrieve results bandwidth 2.793000 [GByte/s]
[OGL LOG][Proc: 0]p: solve_multi_gpu: 158.153 [ms]
BJhipGKOCG:  Solving for p, Initial residual = 0.0446034, Final residual = 9.98438e-05, No Iterations 316
[INFO] SolveP: 161.331 [ms]
time step continuity errors : sum local = 1.48411e-08, global = 4.8267e-21, cumulative = -1.34446e-20
[INFO] ContinuityError: 1.778 [ms]
[INFO] CorrectBoundary: 0.111 [ms]
[INFO] PISOStep: 174.077 [ms]
[INFO] MatrixAssemblyPI: 5.879 [ms]
[INFO] AdjustPhi: 1.233 [ms]
[INFO] ConstrainPressure: 0.003 [ms]
[INFO] MatrixAssemblyPII: 2.097 [ms]
[OGL LOG][Proc: 0]: global_index_init: 0.046 [ms]
[OGL LOG][Proc: 0]p_local_coeffs: call_update: 0 [ms]
[OGL LOG][Proc: 0]p_non_local_coeffs: call_update: 0 [ms]
[OGL LOG][Proc: 0]p: update_local_matrix_data: 2.491 [ms]
[OGL LOG][Proc: 0]p: update_non_local_matrix_data: 0.016 [ms]
[OGL LOG][Proc: 0]p_matrix: call_update: 0.235 [ms]
[OGL LOG][Proc: 0]p_rhs: call_update: 0.1 [ms]
[OGL LOG][Preconditioner.H:121] Generate preconditioner BJ MaxBlockSize 1
[OGL LOG][Proc: 0]p: init_precond: 0.128 [ms]
[OGL LOG][StoppingCriterion.H:237] Creating stopping criterion with minIter 189 frequency 5
[OGL LOG][Proc: 0]p: generate_solver: 0.003 [ms]
[OGL LOG][Proc: 0]p: solve: 152.336 [ms]
[OGL LOG][Proc: 0]p: copy_x_back: 0.179 [ms]
[OGL LOG][lduLduBase.H:330] 
Statistics:
	Time per iteration: 482 [mu s]
	Time per residual norm calculation: 122.000000 [mu s]
	Time per iteration and DOF: 0.482000 [ns]
	Retrieve results bandwidth 2.793000 [GByte/s]
[OGL LOG][Proc: 0]p: solve_multi_gpu: 153.677 [ms]
BJhipGKOCG:  Solving for p, Initial residual = 0.037654, Final residual = 8.65134e-05, No Iterations 316
[INFO] SolveP: 156.622 [ms]
time step continuity errors : sum local = 1.23251e-08, global = -1.715e-21, cumulative = -1.51596e-20
[INFO] ContinuityError: 2.029 [ms]
[INFO] CorrectBoundary: 0.663 [ms]
[INFO] PISOStep: 171.281 [ms]
[INFO] TimeStep: 405.033 [ms]
ExecutionTime = 8.45 s  ClockTime = 8 s

Time = 0.0055

Courant Number mean: 0.061248 max: 0.473178
[INFO] MatrixAssemblyU: 4.183 [ms]
DILUPBiCGStab:  Solving for Ux, Initial residual = 0.00814518, Final residual = 2.76018e-05, No Iterations 5
DILUPBiCGStab:  Solving for Uy, Initial residual = 0.0174603, Final residual = 4.57706e-05, No Iterations 5
DILUPBiCGStab:  Solving for Uz, Initial residual = 0.0347156, Final residual = 8.88008e-05, No Iterations 5
[INFO] MomentumPredictor: 58.631 [ms]
[INFO] MatrixAssemblyPI: 5.829 [ms]
[INFO] AdjustPhi: 0.651 [ms]
[INFO] ConstrainPressure: 0.003 [ms]
[INFO] MatrixAssemblyPII: 1.837 [ms]
[OGL LOG][Proc: 0]: global_index_init: 0.042 [ms]
[OGL LOG][Proc: 0]p_local_coeffs: call_update: 0 [ms]
[OGL LOG][Proc: 0]p_non_local_coeffs: call_update: 0 [ms]
[OGL LOG][Proc: 0]p: update_local_matrix_data: 2.5 [ms]
[OGL LOG][Proc: 0]p: update_non_local_matrix_data: 0.031 [ms]
[OGL LOG][Proc: 0]p_matrix: call_update: 0.244 [ms]
[OGL LOG][Proc: 0]p_rhs: call_update: 0.074 [ms]
[OGL LOG][Preconditioner.H:121] Generate preconditioner BJ MaxBlockSize 1
[OGL LOG][Proc: 0]p: init_precond: 0.133 [ms]
[OGL LOG][StoppingCriterion.H:237] Creating stopping criterion with minIter 189 frequency 6
[OGL LOG][Proc: 0]p: generate_solver: 0.003 [ms]
[OGL LOG][Proc: 0]p: solve: 153.513 [ms]
[OGL LOG][Proc: 0]p: copy_x_back: 0.178 [ms]
[OGL LOG][lduLduBase.H:330] 
Statistics:
	Time per iteration: 455 [mu s]
	Time per residual norm calculation: 124.000000 [mu s]
	Time per iteration and DOF: 0.455000 [ns]
	Retrieve results bandwidth 2.808000 [GByte/s]
[OGL LOG][Proc: 0]p: solve_multi_gpu: 154.714 [ms]
BJhipGKOCG:  Solving for p, Initial residual = 0.0350079, Final residual = 9.93335e-05, No Iterations 337
[INFO] SolveP: 157.669 [ms]
time step continuity errors : sum local = 1.642e-08, global = -1.60618e-21, cumulative = -1.67658e-20
[INFO] ContinuityError: 1.125 [ms]
[INFO] CorrectBoundary: 0.101 [ms]
[INFO] PISOStep: 169.985 [ms]
[INFO] MatrixAssemblyPI: 5.686 [ms]
[INFO] AdjustPhi: 1.223 [ms]
[INFO] ConstrainPressure: 0.003 [ms]
[INFO] MatrixAssemblyPII: 1.784 [ms]
[OGL LOG][Proc: 0]: global_index_init: 0.037 [ms]
[OGL LOG][Proc: 0]p_local_coeffs: call_update: 0 [ms]
[OGL LOG][Proc: 0]p_non_local_coeffs: call_update: 0 [ms]
[OGL LOG][Proc: 0]p: update_local_matrix_data: 2.525 [ms]
[OGL LOG][Proc: 0]p: update_non_local_matrix_data: 0.018 [ms]
[OGL LOG][Proc: 0]p_matrix: call_update: 0.242 [ms]
[OGL LOG][Proc: 0]p_rhs: call_update: 0.109 [ms]
[OGL LOG][Preconditioner.H:121] Generate preconditioner BJ MaxBlockSize 1
[OGL LOG][Proc: 0]p: init_precond: 0.136 [ms]
[OGL LOG][StoppingCriterion.H:237] Creating stopping criterion with minIter 202 frequency 6
[OGL LOG][Proc: 0]p: generate_solver: 0.003 [ms]
[OGL LOG][Proc: 0]p: solve: 141.027 [ms]
[OGL LOG][Proc: 0]p: copy_x_back: 0.181 [ms]
[OGL LOG][lduLduBase.H:330] 
Statistics:
	Time per iteration: 450 [mu s]
	Time per residual norm calculation: 122.000000 [mu s]
	Time per iteration and DOF: 0.450000 [ns]
	Retrieve results bandwidth 2.762000 [GByte/s]
[OGL LOG][Proc: 0]p: solve_multi_gpu: 142.173 [ms]
BJhipGKOCG:  Solving for p, Initial residual = 0.0297455, Final residual = 9.56352e-05, No Iterations 313
[INFO] SolveP: 145.153 [ms]
time step continuity errors : sum local = 1.43438e-08, global = 1.44043e-21, cumulative = -1.53254e-20
[INFO] ContinuityError: 0.951 [ms]
[INFO] CorrectBoundary: 0.097 [ms]
[INFO] PISOStep: 157.831 [ms]
[INFO] TimeStep: 391.913 [ms]
ExecutionTime = 8.84 s  ClockTime = 8 s

Time = 0.006

Courant Number mean: 0.06312 max: 0.474157
[INFO] MatrixAssemblyU: 4.196 [ms]
DILUPBiCGStab:  Solving for Ux, Initial residual = 0.00728557, Final residual = 2.41103e-05, No Iterations 5
DILUPBiCGStab:  Solving for Uy, Initial residual = 0.0156074, Final residual = 3.93923e-05, No Iterations 5
DILUPBiCGStab:  Solving for Uz, Initial residual = 0.0313504, Final residual = 8.51024e-05, No Iterations 5
[INFO] MomentumPredictor: 56.894 [ms]
[INFO] MatrixAssemblyPI: 5.734 [ms]
[INFO] AdjustPhi: 0.801 [ms]
[INFO] ConstrainPressure: 0.003 [ms]
[INFO] MatrixAssemblyPII: 1.796 [ms]
[OGL LOG][Proc: 0]: global_index_init: 0.034 [ms]
[OGL LOG][Proc: 0]p_local_coeffs: call_update: 0 [ms]
[OGL LOG][Proc: 0]p_non_local_coeffs: call_update: 0 [ms]
[OGL LOG][Proc: 0]p: update_local_matrix_data: 2.529 [ms]
[OGL LOG][Proc: 0]p: update_non_local_matrix_data: 0.017 [ms]
[OGL LOG][Proc: 0]p_matrix: call_update: 0.239 [ms]
[OGL LOG][Proc: 0]p_rhs: call_update: 0.167 [ms]
[OGL LOG][Preconditioner.H:121] Generate preconditioner BJ MaxBlockSize 1
[OGL LOG][Proc: 0]p: init_precond: 0.13 [ms]
[OGL LOG][StoppingCriterion.H:237] Creating stopping criterion with minIter 187 frequency 6
[OGL LOG][Proc: 0]p: generate_solver: 0.002 [ms]
[OGL LOG][Proc: 0]p: solve: 146.624 [ms]
[OGL LOG][Proc: 0]p: copy_x_back: 0.181 [ms]
[OGL LOG][lduLduBase.H:330] 
Statistics:
	Time per iteration: 459 [mu s]
	Time per residual norm calculation: 124.000000 [mu s]
	Time per iteration and DOF: 0.459000 [ns]
	Retrieve results bandwidth 2.762000 [GByte/s]
[OGL LOG][Proc: 0]p: solve_multi_gpu: 147.9 [ms]
BJhipGKOCG:  Solving for p, Initial residual = 0.0251247, Final residual = 9.88761e-05, No Iterations 319
[INFO] SolveP: 150.901 [ms]
time step continuity errors : sum local = 1.56481e-08, global = -1.57702e-21, cumulative = -1.69024e-20
[INFO] ContinuityError: 1.035 [ms]
[INFO] CorrectBoundary: 0.08 [ms]
[INFO] PISOStep: 163.222 [ms]
[INFO] MatrixAssemblyPI: 5.884 [ms]
[INFO] AdjustPhi: 0.656 [ms]
[INFO] ConstrainPressure: 0.004 [ms]
[INFO] MatrixAssemblyPII: 1.985 [ms]
[OGL LOG][Proc: 0]: global_index_init: 0.22 [ms]
[OGL LOG][Proc: 0]p_local_coeffs: call_update: 0 [ms]
[OGL LOG][Proc: 0]p_non_local_coeffs: call_update: 0 [ms]
[OGL LOG][Proc: 0]p: update_local_matrix_data: 2.764 [ms]
[OGL LOG][Proc: 0]p: update_non_local_matrix_data: 0.019 [ms]
[OGL LOG][Proc: 0]p_matrix: call_update: 0.239 [ms]
[OGL LOG][Proc: 0]p_rhs: call_update: 0.137 [ms]
[OGL LOG][Preconditioner.H:121] Generate preconditioner BJ MaxBlockSize 1
[OGL LOG][Proc: 0]p: init_precond: 0.137 [ms]
[OGL LOG][StoppingCriterion.H:237] Creating stopping criterion with minIter 191 frequency 6
[OGL LOG][Proc: 0]p: generate_solver: 0.003 [ms]
[OGL LOG][Proc: 0]p: solve: 141.308 [ms]
[OGL LOG][Proc: 0]p: copy_x_back: 0.18 [ms]
[OGL LOG][lduLduBase.H:330] 
Statistics:
	Time per iteration: 451 [mu s]
	Time per residual norm calculation: 122.000000 [mu s]
	Time per iteration and DOF: 0.451000 [ns]
	Retrieve results bandwidth 2.777000 [GByte/s]
[OGL LOG][Proc: 0]p: solve_multi_gpu: 142.564 [ms]
BJhipGKOCG:  Solving for p, Initial residual = 0.0219366, Final residual = 9.01171e-05, No Iterations 313
[INFO] SolveP: 145.98 [ms]
time step continuity errors : sum local = 1.29862e-08, global = 4.18623e-21, cumulative = -1.27162e-20
[INFO] ContinuityError: 1.318 [ms]
[INFO] CorrectBoundary: 0.21 [ms]
[INFO] PISOStep: 158.698 [ms]
[INFO] TimeStep: 384.129 [ms]
ExecutionTime = 9.22 s  ClockTime = 9 s

Time = 0.0065

Courant Number mean: 0.0648242 max: 0.474993
[INFO] MatrixAssemblyU: 4.21 [ms]
DILUPBiCGStab:  Solving for Ux, Initial residual = 0.00657, Final residual = 2.09511e-05, No Iterations 5
DILUPBiCGStab:  Solving for Uy, Initial residual = 0.0140612, Final residual = 3.55937e-05, No Iterations 5
DILUPBiCGStab:  Solving for Uz, Initial residual = 0.0290309, Final residual = 8.1344e-05, No Iterations 5
[INFO] MomentumPredictor: 55.366 [ms]
[INFO] MatrixAssemblyPI: 5.784 [ms]
[INFO] AdjustPhi: 0.735 [ms]
[INFO] ConstrainPressure: 0.003 [ms]
[INFO] MatrixAssemblyPII: 1.824 [ms]
[OGL LOG][Proc: 0]: global_index_init: 0.032 [ms]
[OGL LOG][Proc: 0]p_local_coeffs: call_update: 0 [ms]
[OGL LOG][Proc: 0]p_non_local_coeffs: call_update: 0 [ms]
[OGL LOG][Proc: 0]p: update_local_matrix_data: 2.521 [ms]
[OGL LOG][Proc: 0]p: update_non_local_matrix_data: 0.018 [ms]
[OGL LOG][Proc: 0]p_matrix: call_update: 0.243 [ms]
[OGL LOG][Proc: 0]p_rhs: call_update: 0.129 [ms]
[OGL LOG][Preconditioner.H:121] Generate preconditioner BJ MaxBlockSize 1
[OGL LOG][Proc: 0]p: init_precond: 0.128 [ms]
[OGL LOG][StoppingCriterion.H:237] Creating stopping criterion with minIter 187 frequency 6
[OGL LOG][Proc: 0]p: generate_solver: 0.002 [ms]
[OGL LOG][Proc: 0]p: solve: 316.717 [ms]
[OGL LOG][Proc: 0]p: copy_x_back: 0.181 [ms]
[OGL LOG][lduLduBase.H:330] 
Statistics:
	Time per iteration: 458 [mu s]
	Time per residual norm calculation: 131.000000 [mu s]
	Time per iteration and DOF: 0.458000 [ns]
	Retrieve results bandwidth 2.762000 [GByte/s]
[OGL LOG][Proc: 0]p: solve_multi_gpu: 317.922 [ms]
BJhipGKOCG:  Solving for p, Initial residual = 0.0209438, Final residual = 8.4246e-05, No Iterations 691
[INFO] SolveP: 320.888 [ms]
time step continuity errors : sum local = 1.17952e-08, global = -3.7812e-21, cumulative = -1.64974e-20
[INFO] ContinuityError: 1.203 [ms]
[INFO] CorrectBoundary: 0.075 [ms]
[INFO] PISOStep: 333.25 [ms]
[INFO] MatrixAssemblyPI: 5.481 [ms]
[INFO] AdjustPhi: 1.033 [ms]
[INFO] ConstrainPressure: 0.003 [ms]
[INFO] MatrixAssemblyPII: 2.18 [ms]
[OGL LOG][Proc: 0]: global_index_init: 0.036 [ms]
[OGL LOG][Proc: 0]p_local_coeffs: call_update: 0 [ms]
[OGL LOG][Proc: 0]p_non_local_coeffs: call_update: 0 [ms]
[OGL LOG][Proc: 0]p: update_local_matrix_data: 2.767 [ms]
[OGL LOG][Proc: 0]p: update_non_local_matrix_data: 0.018 [ms]
[OGL LOG][Proc: 0]p_matrix: call_update: 0.242 [ms]
[OGL LOG][Proc: 0]p_rhs: call_update: 0.163 [ms]
[OGL LOG][Preconditioner.H:121] Generate preconditioner BJ MaxBlockSize 1
[OGL LOG][Proc: 0]p: init_precond: 0.129 [ms]
[OGL LOG][StoppingCriterion.H:237] Creating stopping criterion with minIter 414 frequency 9
[OGL LOG][Proc: 0]p: generate_solver: 0.003 [ms]
[OGL LOG][Proc: 0]p: solve: 307.143 [ms]
[OGL LOG][Proc: 0]p: copy_x_back: 0.187 [ms]
[OGL LOG][lduLduBase.H:330] 
Statistics:
	Time per iteration: 448 [mu s]
	Time per residual norm calculation: 122.000000 [mu s]
	Time per iteration and DOF: 0.448000 [ns]
	Retrieve results bandwidth 2.673000 [GByte/s]
[OGL LOG][Proc: 0]p: solve_multi_gpu: 308.282 [ms]
BJhipGKOCG:  Solving for p, Initial residual = 0.0184718, Final residual = 8.8253e-05, No Iterations 685
[INFO] SolveP: 311.515 [ms]
time step continuity errors : sum local = 1.23616e-08, global = -2.57538e-21, cumulative = -1.90727e-20
[INFO] ContinuityError: 1.054 [ms]
[INFO] CorrectBoundary: 0.132 [ms]
[INFO] PISOStep: 324.49 [ms]
[INFO] TimeStep: 718.368 [ms]
ExecutionTime = 9.94 s  ClockTime = 10 s

Time = 0.007

Courant Number mean: 0.0663921 max: 0.475725
[INFO] MatrixAssemblyU: 4.157 [ms]
DILUPBiCGStab:  Solving for Ux, Initial residual = 0.00596517, Final residual = 1.87196e-05, No Iterations 5
DILUPBiCGStab:  Solving for Uy, Initial residual = 0.0127665, Final residual = 3.18309e-05, No Iterations 5
DILUPBiCGStab:  Solving for Uz, Initial residual = 0.0259015, Final residual = 5.95065e-05, No Iterations 5
[INFO] MomentumPredictor: 56.446 [ms]
[INFO] MatrixAssemblyPI: 5.771 [ms]
[INFO] AdjustPhi: 0.925 [ms]
[INFO] ConstrainPressure: 0.003 [ms]
[INFO] MatrixAssemblyPII: 1.713 [ms]
[OGL LOG][Proc: 0]: global_index_init: 0.034 [ms]
[OGL LOG][Proc: 0]p_local_coeffs: call_update: 0 [ms]
[OGL LOG][Proc: 0]p_non_local_coeffs: call_update: 0 [ms]
[OGL LOG][Proc: 0]p: update_local_matrix_data: 2.546 [ms]
[OGL LOG][Proc: 0]p: update_non_local_matrix_data: 0.02 [ms]
[OGL LOG][Proc: 0]p_matrix: call_update: 0.244 [ms]
[OGL LOG][Proc: 0]p_rhs: call_update: 0.135 [ms]
[OGL LOG][Preconditioner.H:121] Generate preconditioner BJ MaxBlockSize 1
[OGL LOG][Proc: 0]p: init_precond: 0.129 [ms]
[OGL LOG][StoppingCriterion.H:237] Creating stopping criterion with minIter 411 frequency 9
[OGL LOG][Proc: 0]p: generate_solver: 0.003 [ms]
[OGL LOG][Proc: 0]p: solve: 307.462 [ms]
[OGL LOG][Proc: 0]p: copy_x_back: 0.186 [ms]
[OGL LOG][lduLduBase.H:330] 
Statistics:
	Time per iteration: 448 [mu s]
	Time per residual norm calculation: 120.000000 [mu s]
	Time per iteration and DOF: 0.448000 [ns]
	Retrieve results bandwidth 2.688000 [GByte/s]
[OGL LOG][Proc: 0]p: solve_multi_gpu: 308.716 [ms]
BJhipGKOCG:  Solving for p, Initial residual = 0.0163331, Final residual = 8.68876e-05, No Iterations 685
[INFO] SolveP: 311.695 [ms]
time step continuity errors : sum local = 1.21559e-08, global = 6.23204e-21, cumulative = -1.28407e-20
[INFO] ContinuityError: 1.17 [ms]
[INFO] CorrectBoundary: 0.078 [ms]
[INFO] PISOStep: 324.244 [ms]
[INFO] MatrixAssemblyPI: 5.478 [ms]
[INFO] AdjustPhi: 0.777 [ms]
[INFO] ConstrainPressure: 0.003 [ms]
[INFO] MatrixAssemblyPII: 1.81 [ms]
[OGL LOG][Proc: 0]: global_index_init: 0.047 [ms]
[OGL LOG][Proc: 0]p_local_coeffs: call_update: 0 [ms]
[OGL LOG][Proc: 0]p_non_local_coeffs: call_update: 0 [ms]
[OGL LOG][Proc: 0]p: update_local_matrix_data: 2.745 [ms]
[OGL LOG][Proc: 0]p: update_non_local_matrix_data: 0.02 [ms]
[OGL LOG][Proc: 0]p_matrix: call_update: 0.245 [ms]
[OGL LOG][Proc: 0]p_rhs: call_update: 0.157 [ms]
[OGL LOG][Preconditioner.H:121] Generate preconditioner BJ MaxBlockSize 1
[OGL LOG][Proc: 0]p: init_precond: 0.13 [ms]
[OGL LOG][StoppingCriterion.H:237] Creating stopping criterion with minIter 411 frequency 9
[OGL LOG][Proc: 0]p: generate_solver: 0.003 [ms]
[OGL LOG][Proc: 0]p: solve: 194.76 [ms]
[OGL LOG][Proc: 0]p: copy_x_back: 0.273 [ms]
[OGL LOG][lduLduBase.H:330] 
Statistics:
	Time per iteration: 469 [mu s]
	Time per residual norm calculation: 131.000000 [mu s]
	Time per iteration and DOF: 0.469000 [ns]
	Retrieve results bandwidth 1.831000 [GByte/s]
[OGL LOG][Proc: 0]p: solve_multi_gpu: 196.154 [ms]
BJhipGKOCG:  Solving for p, Initial residual = 0.0148003, Final residual = 8.53601e-05, No Iterations 415
[INFO] SolveP: 199.703 [ms]
time step continuity errors : sum local = 1.26685e-08, global = -5.26087e-22, cumulative = -1.33668e-20
[INFO] ContinuityError: 0.988 [ms]
[INFO] CorrectBoundary: 0.055 [ms]
[INFO] PISOStep: 213.417 [ms]
[INFO] TimeStep: 599.377 [ms]
ExecutionTime = 10.53 s  ClockTime = 10 s

Time = 0.0075

Courant Number mean: 0.0678393 max: 0.476365
[INFO] MatrixAssemblyU: 5.102 [ms]
DILUPBiCGStab:  Solving for Ux, Initial residual = 0.00544239, Final residual = 1.66709e-05, No Iterations 5
DILUPBiCGStab:  Solving for Uy, Initial residual = 0.011667, Final residual = 2.89137e-05, No Iterations 5
DILUPBiCGStab:  Solving for Uz, Initial residual = 0.0238632, Final residual = 5.7221e-05, No Iterations 5
[INFO] MomentumPredictor: 54.757 [ms]
[INFO] MatrixAssemblyPI: 5.942 [ms]
[INFO] AdjustPhi: 0.582 [ms]
[INFO] ConstrainPressure: 0.004 [ms]
[INFO] MatrixAssemblyPII: 1.732 [ms]
[OGL LOG][Proc: 0]: global_index_init: 0.034 [ms]
[OGL LOG][Proc: 0]p_local_coeffs: call_update: 0 [ms]
[OGL LOG][Proc: 0]p_non_local_coeffs: call_update: 0 [ms]
[OGL LOG][Proc: 0]p: update_local_matrix_data: 2.737 [ms]
[OGL LOG][Proc: 0]p: update_non_local_matrix_data: 0.028 [ms]
[OGL LOG][Proc: 0]p_matrix: call_update: 0.244 [ms]
[OGL LOG][Proc: 0]p_rhs: call_update: 0.14 [ms]
[OGL LOG][Preconditioner.H:121] Generate preconditioner BJ MaxBlockSize 1
[OGL LOG][Proc: 0]p: init_precond: 0.135 [ms]
[OGL LOG][StoppingCriterion.H:237] Creating stopping criterion with minIter 249 frequency 7
[OGL LOG][Proc: 0]p: generate_solver: 0.003 [ms]
[OGL LOG][Proc: 0]p: solve: 312.328 [ms]
[OGL LOG][Proc: 0]p: copy_x_back: 0.182 [ms]
[OGL LOG][lduLduBase.H:330] 
Statistics:
	Time per iteration: 454 [mu s]
	Time per residual norm calculation: 119.000000 [mu s]
	Time per iteration and DOF: 0.454000 [ns]
	Retrieve results bandwidth 2.747000 [GByte/s]
[OGL LOG][Proc: 0]p: solve_multi_gpu: 313.248 [ms]
BJhipGKOCG:  Solving for p, Initial residual = 0.0140348, Final residual = 7.13349e-05, No Iterations 687
[INFO] SolveP: 316.434 [ms]
time step continuity errors : sum local = 9.96887e-09, global = 5.75853e-21, cumulative = -7.60824e-21
[INFO] ContinuityError: 1.098 [ms]
[INFO] CorrectBoundary: 0.056 [ms]
[INFO] PISOStep: 328.813 [ms]
[INFO] MatrixAssemblyPI: 5.494 [ms]
[INFO] AdjustPhi: 0.688 [ms]
[INFO] ConstrainPressure: 0.002 [ms]
[INFO] MatrixAssemblyPII: 1.818 [ms]
[OGL LOG][Proc: 0]: global_index_init: 0.032 [ms]
[OGL LOG][Proc: 0]p_local_coeffs: call_update: 0 [ms]
[OGL LOG][Proc: 0]p_non_local_coeffs: call_update: 0 [ms]
[OGL LOG][Proc: 0]p: update_local_matrix_data: 3.178 [ms]
[OGL LOG][Proc: 0]p: update_non_local_matrix_data: 0.02 [ms]
[OGL LOG][Proc: 0]p_matrix: call_update: 0.238 [ms]
[OGL LOG][Proc: 0]p_rhs: call_update: 0.098 [ms]
[OGL LOG][Preconditioner.H:121] Generate preconditioner BJ MaxBlockSize 1
[OGL LOG][Proc: 0]p: init_precond: 0.135 [ms]
[OGL LOG][StoppingCriterion.H:237] Creating stopping criterion with minIter 412 frequency 9
[OGL LOG][Proc: 0]p: generate_solver: 0.003 [ms]
[OGL LOG][Proc: 0]p: solve: 319.645 [ms]
[OGL LOG][Proc: 0]p: copy_x_back: 0.18 [ms]
[OGL LOG][lduLduBase.H:330] 
Statistics:
	Time per iteration: 466 [mu s]
	Time per residual norm calculation: 119.000000 [mu s]
	Time per iteration and DOF: 0.466000 [ns]
	Retrieve results bandwidth 2.777000 [GByte/s]
[OGL LOG][Proc: 0]p: solve_multi_gpu: 320.825 [ms]
BJhipGKOCG:  Solving for p, Initial residual = 0.0127996, Final residual = 7.39467e-05, No Iterations 685
[INFO] SolveP: 324.447 [ms]
time step continuity errors : sum local = 1.03377e-08, global = 3.17953e-21, cumulative = -4.42872e-21
[INFO] ContinuityError: 2.078 [ms]
[INFO] CorrectBoundary: 0.511 [ms]
[INFO] PISOStep: 338.171 [ms]
[INFO] TimeStep: 728.106 [ms]
ExecutionTime = 11.26 s  ClockTime = 11 s

Time = 0.008

Courant Number mean: 0.0691766 max: 0.476935
[INFO] MatrixAssemblyU: 4.247 [ms]
DILUPBiCGStab:  Solving for Ux, Initial residual = 0.00499545, Final residual = 1.50962e-05, No Iterations 5
DILUPBiCGStab:  Solving for Uy, Initial residual = 0.0107171, Final residual = 2.63961e-05, No Iterations 5
DILUPBiCGStab:  Solving for Uz, Initial residual = 0.0218154, Final residual = 4.7759e-05, No Iterations 5
[INFO] MomentumPredictor: 56.375 [ms]
[INFO] MatrixAssemblyPI: 5.807 [ms]
[INFO] AdjustPhi: 0.686 [ms]
[INFO] ConstrainPressure: 0.003 [ms]
[INFO] MatrixAssemblyPII: 1.742 [ms]
[OGL LOG][Proc: 0]: global_index_init: 0.038 [ms]
[OGL LOG][Proc: 0]p_local_coeffs: call_update: 0 [ms]
[OGL LOG][Proc: 0]p_non_local_coeffs: call_update: 0 [ms]
[OGL LOG][Proc: 0]p: update_local_matrix_data: 2.567 [ms]
[OGL LOG][Proc: 0]p: update_non_local_matrix_data: 0.017 [ms]
[OGL LOG][Proc: 0]p_matrix: call_update: 0.242 [ms]
[OGL LOG][Proc: 0]p_rhs: call_update: 0.09 [ms]
[OGL LOG][Preconditioner.H:121] Generate preconditioner BJ MaxBlockSize 1
[OGL LOG][Proc: 0]p: init_precond: 0.133 [ms]
[OGL LOG][StoppingCriterion.H:237] Creating stopping criterion with minIter 411 frequency 9
[OGL LOG][Proc: 0]p: generate_solver: 0.003 [ms]
[OGL LOG][Proc: 0]p: solve: 183.71 [ms]
[OGL LOG][Proc: 0]p: copy_x_back: 0.18 [ms]
[OGL LOG][lduLduBase.H:330] 
Statistics:
	Time per iteration: 442 [mu s]
	Time per residual norm calculation: 122.000000 [mu s]
	Time per iteration and DOF: 0.442000 [ns]
	Retrieve results bandwidth 2.777000 [GByte/s]
[OGL LOG][Proc: 0]p: solve_multi_gpu: 184.908 [ms]
BJhipGKOCG:  Solving for p, Initial residual = 0.0120203, Final residual = 5.35498e-05, No Iterations 415
[INFO] SolveP: 187.92 [ms]
time step continuity errors : sum local = 7.94099e-09, global = 1.62837e-20, cumulative = 1.1855e-20
[INFO] ContinuityError: 1.055 [ms]
[INFO] CorrectBoundary: 0.064 [ms]
[INFO] PISOStep: 200.161 [ms]
[INFO] MatrixAssemblyPI: 5.512 [ms]
[INFO] AdjustPhi: 0.881 [ms]
[INFO] ConstrainPressure: 0.003 [ms]
[INFO] MatrixAssemblyPII: 1.975 [ms]
[OGL LOG][Proc: 0]: global_index_init: 0.031 [ms]
[OGL LOG][Proc: 0]p_local_coeffs: call_update: 0 [ms]
[OGL LOG][Proc: 0]p_non_local_coeffs: call_update: 0 [ms]
[OGL LOG][Proc: 0]p: update_local_matrix_data: 2.527 [ms]
[OGL LOG][Proc: 0]p: update_non_local_matrix_data: 0.016 [ms]
[OGL LOG][Proc: 0]p_matrix: call_update: 0.234 [ms]
[OGL LOG][Proc: 0]p_rhs: call_update: 0.135 [ms]
[OGL LOG][Preconditioner.H:121] Generate preconditioner BJ MaxBlockSize 1
[OGL LOG][Proc: 0]p: init_precond: 0.129 [ms]
[OGL LOG][StoppingCriterion.H:237] Creating stopping criterion with minIter 249 frequency 7
[OGL LOG][Proc: 0]p: generate_solver: 0.003 [ms]
[OGL LOG][Proc: 0]p: solve: 127.805 [ms]
[OGL LOG][Proc: 0]p: copy_x_back: 0.181 [ms]
[OGL LOG][lduLduBase.H:330] 
Statistics:
	Time per iteration: 443 [mu s]
	Time per residual norm calculation: 121.000000 [mu s]
	Time per iteration and DOF: 0.443000 [ns]
	Retrieve results bandwidth 2.762000 [GByte/s]
[OGL LOG][Proc: 0]p: solve_multi_gpu: 129.043 [ms]
BJhipGKOCG:  Solving for p, Initial residual = 0.0111521, Final residual = 9.94363e-05, No Iterations 288
[INFO] SolveP: 132.015 [ms]
time step continuity errors : sum local = 1.41246e-08, global = 5.78767e-21, cumulative = 1.76426e-20
[INFO] ContinuityError: 1.148 [ms]
[INFO] CorrectBoundary: 0.052 [ms]
[INFO] PISOStep: 144.4 [ms]
[INFO] TimeStep: 406.549 [ms]
ExecutionTime = 11.66 s  ClockTime = 11 s

Time = 0.0085

Courant Number mean: 0.0704222 max: 0.477443
[INFO] MatrixAssemblyU: 4.204 [ms]
DILUPBiCGStab:  Solving for Ux, Initial residual = 0.00460078, Final residual = 1.36618e-05, No Iterations 5
DILUPBiCGStab:  Solving for Uy, Initial residual = 0.00989476, Final residual = 2.42771e-05, No Iterations 5
DILUPBiCGStab:  Solving for Uz, Initial residual = 0.0201537, Final residual = 4.43945e-05, No Iterations 5
[INFO] MomentumPredictor: 57.015 [ms]
[INFO] MatrixAssemblyPI: 5.797 [ms]
[INFO] AdjustPhi: 0.581 [ms]
[INFO] ConstrainPressure: 0.002 [ms]
[INFO] MatrixAssemblyPII: 1.778 [ms]
[OGL LOG][Proc: 0]: global_index_init: 0.037 [ms]
[OGL LOG][Proc: 0]p_local_coeffs: call_update: 0 [ms]
[OGL LOG][Proc: 0]p_non_local_coeffs: call_update: 0 [ms]
[OGL LOG][Proc: 0]p: update_local_matrix_data: 2.647 [ms]
[OGL LOG][Proc: 0]p: update_non_local_matrix_data: 0.018 [ms]
[OGL LOG][Proc: 0]p_matrix: call_update: 0.243 [ms]
[OGL LOG][Proc: 0]p_rhs: call_update: 0.073 [ms]
[OGL LOG][Preconditioner.H:121] Generate preconditioner BJ MaxBlockSize 1
[OGL LOG][Proc: 0]p: init_precond: 0.13 [ms]
[OGL LOG][StoppingCriterion.H:237] Creating stopping criterion with minIter 172 frequency 6
[OGL LOG][Proc: 0]p: generate_solver: 0.003 [ms]
[OGL LOG][Proc: 0]p: solve: 130.763 [ms]
[OGL LOG][Proc: 0]p: copy_x_back: 0.178 [ms]
[OGL LOG][lduLduBase.H:330] 
Statistics:
	Time per iteration: 452 [mu s]
	Time per residual norm calculation: 126.000000 [mu s]
	Time per iteration and DOF: 0.452000 [ns]
	Retrieve results bandwidth 2.808000 [GByte/s]
[OGL LOG][Proc: 0]p: solve_multi_gpu: 131.932 [ms]
BJhipGKOCG:  Solving for p, Initial residual = 0.0105521, Final residual = 9.64937e-05, No Iterations 289
[INFO] SolveP: 135.003 [ms]
time step continuity errors : sum local = 1.42231e-08, global = -9.87581e-21, cumulative = 7.76681e-21
[INFO] ContinuityError: 1.016 [ms]
[INFO] CorrectBoundary: 0.052 [ms]
[INFO] PISOStep: 147.064 [ms]
[INFO] MatrixAssemblyPI: 5.484 [ms]
[INFO] AdjustPhi: 0.755 [ms]
[INFO] ConstrainPressure: 0.003 [ms]
[INFO] MatrixAssemblyPII: 2.122 [ms]
[OGL LOG][Proc: 0]: global_index_init: 0.035 [ms]
[OGL LOG][Proc: 0]p_local_coeffs: call_update: 0 [ms]
[OGL LOG][Proc: 0]p_non_local_coeffs: call_update: 0 [ms]
[OGL LOG][Proc: 0]p: update_local_matrix_data: 2.919 [ms]
[OGL LOG][Proc: 0]p: update_non_local_matrix_data: 0.017 [ms]
[OGL LOG][Proc: 0]p_matrix: call_update: 0.242 [ms]
[OGL LOG][Proc: 0]p_rhs: call_update: 0.181 [ms]
[OGL LOG][Preconditioner.H:121] Generate preconditioner BJ MaxBlockSize 1
[OGL LOG][Proc: 0]p: init_precond: 0.134 [ms]
[OGL LOG][StoppingCriterion.H:237] Creating stopping criterion with minIter 173 frequency 6
[OGL LOG][Proc: 0]p: generate_solver: 0.003 [ms]
[OGL LOG][Proc: 0]p: solve: 133.507 [ms]
[OGL LOG][Proc: 0]p: copy_x_back: 0.183 [ms]
[OGL LOG][lduLduBase.H:330] 
Statistics:
	Time per iteration: 471 [mu s]
	Time per residual norm calculation: 123.000000 [mu s]
	Time per iteration and DOF: 0.471000 [ns]
	Retrieve results bandwidth 2.732000 [GByte/s]
[OGL LOG][Proc: 0]p: solve_multi_gpu: 134.621 [ms]
BJhipGKOCG:  Solving for p, Initial residual = 0.00985212, Final residual = 9.41055e-05, No Iterations 283
[INFO] SolveP: 138.013 [ms]
time step continuity errors : sum local = 1.32998e-08, global = 2.98659e-21, cumulative = 1.07534e-20
[INFO] ContinuityError: 1.36 [ms]
[INFO] CorrectBoundary: 0.044 [ms]
[INFO] PISOStep: 150.791 [ms]
[INFO] TimeStep: 360.422 [ms]
ExecutionTime = 12.02 s  ClockTime = 12 s

Time = 0.009

Courant Number mean: 0.0715857 max: 0.477902
[INFO] MatrixAssemblyU: 4.851 [ms]
DILUPBiCGStab:  Solving for Ux, Initial residual = 0.00425641, Final residual = 1.24969e-05, No Iterations 5
DILUPBiCGStab:  Solving for Uy, Initial residual = 0.00917287, Final residual = 2.24431e-05, No Iterations 5
DILUPBiCGStab:  Solving for Uz, Initial residual = 0.0187126, Final residual = 4.29956e-05, No Iterations 5
[INFO] MomentumPredictor: 56.125 [ms]
[INFO] MatrixAssemblyPI: 5.786 [ms]
[INFO] AdjustPhi: 0.647 [ms]
[INFO] ConstrainPressure: 0.003 [ms]
[INFO] MatrixAssemblyPII: 1.761 [ms]
[OGL LOG][Proc: 0]: global_index_init: 0.035 [ms]
[OGL LOG][Proc: 0]p_local_coeffs: call_update: 0 [ms]
[OGL LOG][Proc: 0]p_non_local_coeffs: call_update: 0 [ms]
[OGL LOG][Proc: 0]p: update_local_matrix_data: 2.539 [ms]
[OGL LOG][Proc: 0]p: update_non_local_matrix_data: 0.017 [ms]
[OGL LOG][Proc: 0]p_matrix: call_update: 0.233 [ms]
[OGL LOG][Proc: 0]p_rhs: call_update: 0.099 [ms]
[OGL LOG][Preconditioner.H:121] Generate preconditioner BJ MaxBlockSize 1
[OGL LOG][Proc: 0]p: init_precond: 0.133 [ms]
[OGL LOG][StoppingCriterion.H:237] Creating stopping criterion with minIter 169 frequency 6
[OGL LOG][Proc: 0]p: generate_solver: 0.003 [ms]
[OGL LOG][Proc: 0]p: solve: 140.587 [ms]
[OGL LOG][Proc: 0]p: copy_x_back: 0.18 [ms]
[OGL LOG][lduLduBase.H:330] 
Statistics:
	Time per iteration: 496 [mu s]
	Time per residual norm calculation: 120.000000 [mu s]
	Time per iteration and DOF: 0.496000 [ns]
	Retrieve results bandwidth 2.777000 [GByte/s]
[OGL LOG][Proc: 0]p: solve_multi_gpu: 141.832 [ms]
BJhipGKOCG:  Solving for p, Initial residual = 0.00954904, Final residual = 9.84108e-05, No Iterations 283
[INFO] SolveP: 144.809 [ms]
time step continuity errors : sum local = 1.45651e-08, global = 1.02684e-21, cumulative = 1.17802e-20
[INFO] ContinuityError: 1.295 [ms]
[INFO] CorrectBoundary: 0.109 [ms]
[INFO] PISOStep: 157.204 [ms]
[INFO] MatrixAssemblyPI: 5.759 [ms]
[INFO] AdjustPhi: 1.033 [ms]
[INFO] ConstrainPressure: 0.003 [ms]
[INFO] MatrixAssemblyPII: 1.758 [ms]
[OGL LOG][Proc: 0]: global_index_init: 0.037 [ms]
[OGL LOG][Proc: 0]p_local_coeffs: call_update: 0 [ms]
[OGL LOG][Proc: 0]p_non_local_coeffs: call_update: 0 [ms]
[OGL LOG][Proc: 0]p: update_local_matrix_data: 2.801 [ms]
[OGL LOG][Proc: 0]p: update_non_local_matrix_data: 0.03 [ms]
[OGL LOG][Proc: 0]p_matrix: call_update: 0.238 [ms]
[OGL LOG][Proc: 0]p_rhs: call_update: 0.076 [ms]
[OGL LOG][Preconditioner.H:121] Generate preconditioner BJ MaxBlockSize 1
[OGL LOG][Proc: 0]p: init_precond: 0.141 [ms]
[OGL LOG][StoppingCriterion.H:237] Creating stopping criterion with minIter 169 frequency 5
[OGL LOG][Proc: 0]p: generate_solver: 0.003 [ms]
[OGL LOG][Proc: 0]p: solve: 127.525 [ms]
[OGL LOG][Proc: 0]p: copy_x_back: 0.183 [ms]
[OGL LOG][lduLduBase.H:330] 
Statistics:
	Time per iteration: 453 [mu s]
	Time per residual norm calculation: 121.000000 [mu s]
	Time per iteration and DOF: 0.453000 [ns]
	Retrieve results bandwidth 2.732000 [GByte/s]
[OGL LOG][Proc: 0]p: solve_multi_gpu: 128.891 [ms]
BJhipGKOCG:  Solving for p, Initial residual = 0.00899839, Final residual = 9.13528e-05, No Iterations 281
[INFO] SolveP: 132.407 [ms]
time step continuity errors : sum local = 1.30749e-08, global = 6.07122e-21, cumulative = 1.78515e-20
[INFO] ContinuityError: 1.108 [ms]
[INFO] CorrectBoundary: 0.069 [ms]
[INFO] PISOStep: 145.037 [ms]
[INFO] TimeStep: 365.446 [ms]
ExecutionTime = 12.38 s  ClockTime = 12 s

Time = 0.0095

Courant Number mean: 0.0726727 max: 0.478315
[INFO] MatrixAssemblyU: 4.162 [ms]
DILUPBiCGStab:  Solving for Ux, Initial residual = 0.00395379, Final residual = 1.14465e-05, No Iterations 5
DILUPBiCGStab:  Solving for Uy, Initial residual = 0.00852308, Final residual = 2.08738e-05, No Iterations 5
DILUPBiCGStab:  Solving for Uz, Initial residual = 0.0176856, Final residual = 4.15806e-05, No Iterations 5
[INFO] MomentumPredictor: 53.949 [ms]
[INFO] MatrixAssemblyPI: 5.864 [ms]
[INFO] AdjustPhi: 0.585 [ms]
[INFO] ConstrainPressure: 0.003 [ms]
[INFO] MatrixAssemblyPII: 1.727 [ms]
[OGL LOG][Proc: 0]: global_index_init: 0.049 [ms]
[OGL LOG][Proc: 0]p_local_coeffs: call_update: 0 [ms]
[OGL LOG][Proc: 0]p_non_local_coeffs: call_update: 0 [ms]
[OGL LOG][Proc: 0]p: update_local_matrix_data: 2.594 [ms]
[OGL LOG][Proc: 0]p: update_non_local_matrix_data: 0.018 [ms]
[OGL LOG][Proc: 0]p_matrix: call_update: 0.25 [ms]
[OGL LOG][Proc: 0]p_rhs: call_update: 0.127 [ms]
[OGL LOG][Preconditioner.H:121] Generate preconditioner BJ MaxBlockSize 1
[OGL LOG][Proc: 0]p: init_precond: 0.128 [ms]
[OGL LOG][StoppingCriterion.H:237] Creating stopping criterion with minIter 168 frequency 6
[OGL LOG][Proc: 0]p: generate_solver: 0.003 [ms]
[OGL LOG][Proc: 0]p: solve: 135.975 [ms]
[OGL LOG][Proc: 0]p: copy_x_back: 0.178 [ms]
[OGL LOG][lduLduBase.H:330] 
Statistics:
	Time per iteration: 451 [mu s]
	Time per residual norm calculation: 122.000000 [mu s]
	Time per iteration and DOF: 0.451000 [ns]
	Retrieve results bandwidth 2.808000 [GByte/s]
[OGL LOG][Proc: 0]p: solve_multi_gpu: 137.15 [ms]
BJhipGKOCG:  Solving for p, Initial residual = 0.00874874, Final residual = 8.82033e-05, No Iterations 301
[INFO] SolveP: 140.417 [ms]
time step continuity errors : sum local = 1.36093e-08, global = 1.05852e-20, cumulative = 2.84367e-20
[INFO] ContinuityError: 1.013 [ms]
[INFO] CorrectBoundary: 0.068 [ms]
[INFO] PISOStep: 152.683 [ms]
[INFO] MatrixAssemblyPI: 5.45 [ms]
[INFO] AdjustPhi: 0.645 [ms]
[INFO] ConstrainPressure: 0.003 [ms]
[INFO] MatrixAssemblyPII: 1.767 [ms]
[OGL LOG][Proc: 0]: global_index_init: 0.037 [ms]
[OGL LOG][Proc: 0]p_local_coeffs: call_update: 0 [ms]
[OGL LOG][Proc: 0]p_non_local_coeffs: call_update: 0 [ms]
[OGL LOG][Proc: 0]p: update_local_matrix_data: 2.664 [ms]
[OGL LOG][Proc: 0]p: update_non_local_matrix_data: 0.019 [ms]
[OGL LOG][Proc: 0]p_matrix: call_update: 0.242 [ms]
[OGL LOG][Proc: 0]p_rhs: call_update: 0.111 [ms]
[OGL LOG][Preconditioner.H:121] Generate preconditioner BJ MaxBlockSize 1
[OGL LOG][Proc: 0]p: init_precond: 0.185 [ms]
[OGL LOG][StoppingCriterion.H:237] Creating stopping criterion with minIter 180 frequency 6
[OGL LOG][Proc: 0]p: generate_solver: 0.003 [ms]
[OGL LOG][Proc: 0]p: solve: 130.874 [ms]
[OGL LOG][Proc: 0]p: copy_x_back: 0.179 [ms]
[OGL LOG][lduLduBase.H:330] 
Statistics:
	Time per iteration: 452 [mu s]
	Time per residual norm calculation: 119.000000 [mu s]
	Time per iteration and DOF: 0.452000 [ns]
	Retrieve results bandwidth 2.793000 [GByte/s]
[OGL LOG][Proc: 0]p: solve_multi_gpu: 132.221 [ms]
BJhipGKOCG:  Solving for p, Initial residual = 0.00826958, Final residual = 9.28169e-05, No Iterations 289
[INFO] SolveP: 135.353 [ms]
time step continuity errors : sum local = 1.33087e-08, global = -1.10361e-20, cumulative = 1.74006e-20
[INFO] ContinuityError: 1.251 [ms]
[INFO] CorrectBoundary: 0.052 [ms]
[INFO] PISOStep: 147.199 [ms]
[INFO] TimeStep: 359.186 [ms]
ExecutionTime = 12.74 s  ClockTime = 12 s

Time = 0.01

Courant Number mean: 0.0736902 max: 0.478693
[INFO] MatrixAssemblyU: 4.195 [ms]
DILUPBiCGStab:  Solving for Ux, Initial residual = 0.00367847, Final residual = 1.05651e-05, No Iterations 5
DILUPBiCGStab:  Solving for Uy, Initial residual = 0.00796295, Final residual = 1.95165e-05, No Iterations 5
DILUPBiCGStab:  Solving for Uz, Initial residual = 0.0165627, Final residual = 4.21814e-05, No Iterations 5
[INFO] MomentumPredictor: 56.476 [ms]
[INFO] MatrixAssemblyPI: 5.745 [ms]
[INFO] AdjustPhi: 0.645 [ms]
[INFO] ConstrainPressure: 0.003 [ms]
[INFO] MatrixAssemblyPII: 1.782 [ms]
[OGL LOG][Proc: 0]: global_index_init: 0.045 [ms]
[OGL LOG][Proc: 0]p_local_coeffs: call_update: 0 [ms]
[OGL LOG][Proc: 0]p_non_local_coeffs: call_update: 0 [ms]
[OGL LOG][Proc: 0]p: update_local_matrix_data: 2.551 [ms]
[OGL LOG][Proc: 0]p: update_non_local_matrix_data: 0.018 [ms]
[OGL LOG][Proc: 0]p_matrix: call_update: 0.253 [ms]
[OGL LOG][Proc: 0]p_rhs: call_update: 0.15 [ms]
[OGL LOG][Preconditioner.H:121] Generate preconditioner BJ MaxBlockSize 1
[OGL LOG][Proc: 0]p: init_precond: 0.132 [ms]
[OGL LOG][StoppingCriterion.H:237] Creating stopping criterion with minIter 173 frequency 6
[OGL LOG][Proc: 0]p: generate_solver: 0.003 [ms]
[OGL LOG][Proc: 0]p: solve: 149.976 [ms]
[OGL LOG][Proc: 0]p: copy_x_back: 0.178 [ms]
[OGL LOG][lduLduBase.H:330] 
Statistics:
	Time per iteration: 498 [mu s]
	Time per residual norm calculation: 118.000000 [mu s]
	Time per iteration and DOF: 0.498000 [ns]
	Retrieve results bandwidth 2.808000 [GByte/s]
[OGL LOG][Proc: 0]p: solve_multi_gpu: 151.198 [ms]
BJhipGKOCG:  Solving for p, Initial residual = 0.0082518, Final residual = 9.15635e-05, No Iterations 301
[INFO] SolveP: 154.187 [ms]
time step continuity errors : sum local = 1.43134e-08, global = -1.27387e-20, cumulative = 4.66191e-21
[INFO] ContinuityError: 1.913 [ms]
[INFO] CorrectBoundary: 0.248 [ms]
[INFO] PISOStep: 167.435 [ms]
[INFO] MatrixAssemblyPI: 5.874 [ms]
[INFO] AdjustPhi: 1.12 [ms]
[INFO] ConstrainPressure: 0.003 [ms]
[INFO] MatrixAssemblyPII: 2.155 [ms]
[OGL LOG][Proc: 0]: global_index_init: 0.038 [ms]
[OGL LOG][Proc: 0]p_local_coeffs: call_update: 0 [ms]
[OGL LOG][Proc: 0]p_non_local_coeffs: call_update: 0 [ms]
[OGL LOG][Proc: 0]p: update_local_matrix_data: 2.728 [ms]
[OGL LOG][Proc: 0]p: update_non_local_matrix_data: 0.018 [ms]
[OGL LOG][Proc: 0]p_matrix: call_update: 0.249 [ms]
[OGL LOG][Proc: 0]p_rhs: call_update: 0.074 [ms]
[OGL LOG][Preconditioner.H:121] Generate preconditioner BJ MaxBlockSize 1
[OGL LOG][Proc: 0]p: init_precond: 0.137 [ms]
[OGL LOG][StoppingCriterion.H:237] Creating stopping criterion with minIter 180 frequency 5
[OGL LOG][Proc: 0]p: generate_solver: 0.003 [ms]
[OGL LOG][Proc: 0]p: solve: 151.289 [ms]
[OGL LOG][Proc: 0]p: copy_x_back: 0.18 [ms]
[OGL LOG][lduLduBase.H:330] 
Statistics:
	Time per iteration: 519 [mu s]
	Time per residual norm calculation: 123.000000 [mu s]
	Time per iteration and DOF: 0.519000 [ns]
	Retrieve results bandwidth 2.777000 [GByte/s]
[OGL LOG][Proc: 0]p: solve_multi_gpu: 152.622 [ms]
BJhipGKOCG:  Solving for p, Initial residual = 0.00782849, Final residual = 9.84706e-05, No Iterations 291
[INFO] SolveP: 155.981 [ms]
time step continuity errors : sum local = 1.42602e-08, global = -6.55334e-22, cumulative = 4.00658e-21
[INFO] ContinuityError: 1.678 [ms]
[INFO] CorrectBoundary: 0.362 [ms]
[INFO] PISOStep: 170.462 [ms]
[INFO] TimeStep: 399.786 [ms]
ExecutionTime = 13.14 s  ClockTime = 13 s

End

Finalising parallel run
