/*---------------------------------------------------------------------------*\
| =========                 |                                                 |
| \\      /  F ield         | OpenFOAM: The Open Source CFD Toolbox           |
|  \\    /   O peration     | Version:  2312                                  |
|   \\  /    A nd           | Website:  www.openfoam.com                      |
|    \\/     M anipulation  |                                                 |
\*---------------------------------------------------------------------------*/
Build  : a46b310f-20240104 OPENFOAM=2312 version=v2312
Arch   : "LSB;label=32;scalar=64"
Exec   : icoFoam -parallel -case /hppfs/scratch/0B/di35yan/lidDriven3D/workspace/9574820eaa1c4e9e4ec96b792f47558f/case
Date   : Feb 19 2024
Time   : 06:23:18
Host   : i20r02c02s10
PID    : 146551
I/O    : uncollated
Case   : /hppfs/scratch/0B/di35yan/lidDriven3D/workspace/9574820eaa1c4e9e4ec96b792f47558f/case
nProcs : 48
Hosts  :
(
    (i20r02c02s10 8)
    (i20r02c03s02 8)
    (i20r02c03s04 8)
    (i20r02c03s06 8)
    (i20r02c05s06 8)
    (i20r02c05s08 8)
)
Pstream initialized with:
    floatTransfer      : false
    nProcsSimpleSum    : 0
    nonBlockingExchange: 0 (tuning: 0)
    exchange algorithm : 0
    commsType          : nonBlocking
    polling iterations : 0
trapFpe: Floating point exception trapping enabled (FOAM_SIGFPE).
fileModificationChecking : Monitoring run-time modified files using timeStampMaster (fileModificationSkew 5, maxFileModificationPolls 20)
allowSystemOperations : Allowing user-supplied system call operations

// * * * * * * * * * * * * * * * * * * * * * * * * * * * * * * * * * * * * * //
Create time

--> FOAM Warning : 
    From void* Foam::dlLibraryTable::openLibrary(const Foam::fileName&, bool)
    in file db/dynamicLibrary/dlLibraryTable/dlLibraryTable.C at line 188
    Could not load "libpetscFoam.so"
libpetscFoam.so: cannot open shared object file: No such file or directory
Create mesh for time = 0


PISO: Operating solver in PISO mode

Reading transportProperties

Reading field p

Reading field U

Reading/calculating face flux field phi


Starting time loop

Time = 0.0001

Courant Number mean: 8.40841e-18 max: 5.20417e-14
[INFO] MatrixAssemblyU: 314.308 [ms]
DILUPBiCGStab:  Solving for Ux, Initial residual = 1, Final residual = 0.025488, No Iterations 5
DILUPBiCGStab:  Solving for Uy:  solution singularity
DILUPBiCGStab:  Solving for Uz:  solution singularity
[INFO] MomentumPredictor: 1748.88 [ms]
[INFO] MatrixAssemblyPI: 306.925 [ms]
[INFO] AdjustPhi: 43.018 [ms]
[INFO] ConstrainPressure: 0.005 [ms]
[INFO] MatrixAssemblyPII: 100.789 [ms]
[OGL LOG][lduLduBase.H:119] Initialising OGL
	OGL commit:  34fc915+
	Branch: fix/cyclic_interfaces 
	Build type: Debug
	Ginkgo version: 1.8.0 ( develop)
	Ginkgo commit: fc86d48b78cebd2b2c5833a2dcf0fe40f615cf19
	MPI is GPU aware: 1
	Forces host buffer based communication: 0
	CPU ranks per GPU: 1
	Matrix format: Ell
	End OGL_INFO
[OGL LOG][Proc: 0]: global_index_init: 20.386 [ms]
[OGL LOG][Proc: 0]p_local_cols: call_init: 0.102 [ms]
[OGL LOG][Proc: 0]p_local_rows: call_init: 0.041 [ms]
[OGL LOG][Proc: 0]p_local_ldu_map: call_init: 0.017 [ms]
[OGL LOG][Proc: 0]p_local_coeffs: call_init: 0.837 [ms]
[OGL LOG][Proc: 0]p_non_local_cols: call_init: 0.029 [ms]
[OGL LOG][Proc: 0]p_non_local_rows: call_init: 0.003 [ms]
[OGL LOG][Proc: 0]p_non_local_ldu_map: call_init: 0.002 [ms]
[OGL LOG][Proc: 0]p_non_local_coeffs: call_init: 0.006 [ms]
[OGL LOG][Proc: 0]p: init_local_sparsity_pattern: 38115 [ms]
[OGL LOG][Proc: 0]p: init_non_local_sparsity_pattern: 82.181 [ms]
[OGL LOG][Proc: 0]p: update_local_matrix_data: 3411.85 [ms]
[OGL LOG][Proc: 0]p: update_non_local_matrix_data: 1.108 [ms]
[OGL LOG][Proc: 0]device_partition: call_init: 0.189 [ms]
[OGL LOG][Proc: 0]p_matrix: call_init: 311.6 [ms]
[OGL LOG][Proc: 0]p_rhs: call_init: 6.714 [ms]
[OGL LOG][Proc: 0]p_solution: call_init: 3.665 [ms]
[OGL LOG][Proc: 0]p: init_precond: 0.19 [ms]
[OGL LOG][StoppingCriterion.H:239] Creating stopping criterion with minIter 0 frequency 1
[OGL LOG][Proc: 0]p: generate_solver: 0.323 [ms]
[OGL LOG][Proc: 0]p: solve: 17390.3 [ms]
[OGL LOG][Proc: 0]p: copy_x_back: 5.545 [ms]
[OGL LOG][lduLduBase.H:330] 
Statistics:
	Time per iteration: 4264 [mu s]
	Time per residual norm calculation: 45989.000000 [mu s]
	Time per iteration and DOF: 0.034112 [ns]
	Retrieve results bandwidth 3.742000 [GByte/s]
[OGL LOG][Proc: 0]p: solve_multi_gpu: 17897.6 [ms]
nonedpcppGKOCG:  Solving for p, Initial residual = 1, Final residual = 9.9549e-05, No Iterations 4078
[INFO] SolveP: 59545.5 [ms]
time step continuity errors : sum local = 1.73324e-09, global = -5.20363e-22, cumulative = -5.20363e-22
[INFO] ContinuityError: 57.296 [ms]
[INFO] CorrectBoundary: 2.403 [ms]
[INFO] PISOStep: 60175.4 [ms]
[INFO] MatrixAssemblyPI: 284.998 [ms]
[INFO] AdjustPhi: 50.702 [ms]
[INFO] ConstrainPressure: 0.005 [ms]
[INFO] MatrixAssemblyPII: 92.025 [ms]
[OGL LOG][Proc: 0]: global_index_init: 3.591 [ms]
[OGL LOG][Proc: 0]p_local_coeffs: call_update: 0 [ms]
[OGL LOG][Proc: 0]p_non_local_coeffs: call_update: 0 [ms]
[OGL LOG][Proc: 0]p: update_local_matrix_data: 54.298 [ms]
[OGL LOG][Proc: 0]p: update_non_local_matrix_data: 1.065 [ms]
[OGL LOG][Proc: 0]p: regenerate_distributed_matrix: 197.324 [ms]
[OGL LOG][Proc: 0]p_matrix: call_update: 250.382 [ms]
[OGL LOG][Proc: 0]p_rhs: call_update: 6.167 [ms]
[OGL LOG][Proc: 0]p: init_precond: 0.056 [ms]
[OGL LOG][StoppingCriterion.H:239] Creating stopping criterion with minIter 0 frequency 1
[OGL LOG][Proc: 0]p: generate_solver: 0.02 [ms]
[OGL LOG][Proc: 0]p: solve: 19335.3 [ms]
[OGL LOG][Proc: 0]p: copy_x_back: 4.779 [ms]
[OGL LOG][lduLduBase.H:330] 
Statistics:
	Time per iteration: 4762 [mu s]
	Time per residual norm calculation: 284.000000 [mu s]
	Time per iteration and DOF: 0.038096 [ns]
	Retrieve results bandwidth 4.342000 [GByte/s]
[OGL LOG][Proc: 0]p: solve_multi_gpu: 19604.5 [ms]
nonedpcppGKOCG:  Solving for p, Initial residual = 0.829916, Final residual = 9.84167e-05, No Iterations 4060
[INFO] SolveP: 19674.4 [ms]
time step continuity errors : sum local = 2.04771e-09, global = -1.87621e-22, cumulative = -7.07984e-22
[INFO] ContinuityError: 45.793 [ms]
[INFO] CorrectBoundary: 12.816 [ms]
[INFO] PISOStep: 20276.3 [ms]
[INFO] TimeStep: 82641 [ms]
ExecutionTime = 82.29 s  ClockTime = 87 s

Time = 0.0002

Courant Number mean: 0.00938664 max: 0.443897
[INFO] MatrixAssemblyU: 254.649 [ms]
DILUPBiCGStab:  Solving for Ux, Initial residual = 0.101714, Final residual = 0.0164897, No Iterations 5
DILUPBiCGStab:  Solving for Uy, Initial residual = 0.503781, Final residual = 0.0757258, No Iterations 5
DILUPBiCGStab:  Solving for Uz, Initial residual = 0.991441, Final residual = 0.164309, No Iterations 5
[INFO] MomentumPredictor: 2579.3 [ms]
[INFO] MatrixAssemblyPI: 295.784 [ms]
[INFO] AdjustPhi: 33.399 [ms]
[INFO] ConstrainPressure: 0.002 [ms]
[INFO] MatrixAssemblyPII: 99.417 [ms]
[OGL LOG][Proc: 0]: global_index_init: 0.102 [ms]
[OGL LOG][Proc: 0]p_local_coeffs: call_update: 0 [ms]
[OGL LOG][Proc: 0]p_non_local_coeffs: call_update: 0 [ms]
[OGL LOG][Proc: 0]p: update_local_matrix_data: 60.999 [ms]
[OGL LOG][Proc: 0]p: update_non_local_matrix_data: 0.867 [ms]
[OGL LOG][Proc: 0]p: regenerate_distributed_matrix: 202.43 [ms]
[OGL LOG][Proc: 0]p_matrix: call_update: 203.845 [ms]
[OGL LOG][Proc: 0]p_rhs: call_update: 2.38 [ms]
[OGL LOG][Proc: 0]p: init_precond: 0.047 [ms]
[OGL LOG][StoppingCriterion.H:239] Creating stopping criterion with minIter 2436 frequency 10
[OGL LOG][Proc: 0]p: generate_solver: 0.021 [ms]
[OGL LOG][Proc: 0]p: solve: 16439 [ms]
[OGL LOG][Proc: 0]p: copy_x_back: 4.94 [ms]
[OGL LOG][lduLduBase.H:330] 
Statistics:
	Time per iteration: 4098 [mu s]
	Time per residual norm calculation: 244.000000 [mu s]
	Time per iteration and DOF: 0.032784 [ns]
	Retrieve results bandwidth 4.201000 [GByte/s]
[OGL LOG][Proc: 0]p: solve_multi_gpu: 16655 [ms]
nonedpcppGKOCG:  Solving for p, Initial residual = 0.925206, Final residual = 9.09883e-05, No Iterations 4011
[INFO] SolveP: 16724.4 [ms]
time step continuity errors : sum local = 5.15072e-09, global = -8.10934e-23, cumulative = -7.89077e-22
[INFO] ContinuityError: 55.559 [ms]
[INFO] CorrectBoundary: 14.977 [ms]
[INFO] PISOStep: 17330.6 [ms]
[INFO] MatrixAssemblyPI: 280.514 [ms]
[INFO] AdjustPhi: 55.935 [ms]
[INFO] ConstrainPressure: 0.002 [ms]
[INFO] MatrixAssemblyPII: 87.199 [ms]
[OGL LOG][Proc: 0]: global_index_init: 0.446 [ms]
[OGL LOG][Proc: 0]p_local_coeffs: call_update: 0 [ms]
[OGL LOG][Proc: 0]p_non_local_coeffs: call_update: 0 [ms]
[OGL LOG][Proc: 0]p: update_local_matrix_data: 55.943 [ms]
[OGL LOG][Proc: 0]p: update_non_local_matrix_data: 0.853 [ms]
[OGL LOG][Proc: 0]p: regenerate_distributed_matrix: 203.101 [ms]
[OGL LOG][Proc: 0]p_matrix: call_update: 204.426 [ms]
[OGL LOG][Proc: 0]p_rhs: call_update: 2.942 [ms]
[OGL LOG][Proc: 0]p: init_precond: 0.044 [ms]
[OGL LOG][StoppingCriterion.H:239] Creating stopping criterion with minIter 2406 frequency 10
[OGL LOG][Proc: 0]p: generate_solver: 0.021 [ms]
[OGL LOG][Proc: 0]p: solve: 15465.8 [ms]
[OGL LOG][Proc: 0]p: copy_x_back: 5.85 [ms]
[OGL LOG][lduLduBase.H:330] 
Statistics:
	Time per iteration: 3865 [mu s]
	Time per residual norm calculation: 222.000000 [mu s]
	Time per iteration and DOF: 0.030920 [ns]
	Retrieve results bandwidth 3.547000 [GByte/s]
[OGL LOG][Proc: 0]p: solve_multi_gpu: 15687.4 [ms]
nonedpcppGKOCG:  Solving for p, Initial residual = 0.877654, Final residual = 9.34344e-05, No Iterations 4001
[INFO] SolveP: 15754.8 [ms]
time step continuity errors : sum local = 5.39193e-09, global = -2.59677e-22, cumulative = -1.04875e-21
[INFO] ContinuityError: 57.081 [ms]
[INFO] CorrectBoundary: 1.212 [ms]
[INFO] PISOStep: 16352.5 [ms]
[INFO] TimeStep: 36569.6 [ms]
ExecutionTime = 118.88 s  ClockTime = 123 s

Time = 0.0003

Courant Number mean: 0.0148018 max: 0.526033
[INFO] MatrixAssemblyU: 272.378 [ms]
DILUPBiCGStab:  Solving for Ux, Initial residual = 0.0525937, Final residual = 0.00717179, No Iterations 5
DILUPBiCGStab:  Solving for Uy, Initial residual = 0.28823, Final residual = 0.0376009, No Iterations 5
DILUPBiCGStab:  Solving for Uz, Initial residual = 0.882006, Final residual = 0.117812, No Iterations 5
[INFO] MomentumPredictor: 2529.51 [ms]
[INFO] MatrixAssemblyPI: 307.394 [ms]
[INFO] AdjustPhi: 44.923 [ms]
[INFO] ConstrainPressure: 0.017 [ms]
[INFO] MatrixAssemblyPII: 103.159 [ms]
[OGL LOG][Proc: 0]: global_index_init: 0.196 [ms]
[OGL LOG][Proc: 0]p_local_coeffs: call_update: 0 [ms]
[OGL LOG][Proc: 0]p_non_local_coeffs: call_update: 0 [ms]
[OGL LOG][Proc: 0]p: update_local_matrix_data: 64.524 [ms]
[OGL LOG][Proc: 0]p: update_non_local_matrix_data: 0.97 [ms]
[OGL LOG][Proc: 0]p: regenerate_distributed_matrix: 194.502 [ms]
[OGL LOG][Proc: 0]p_matrix: call_update: 195.561 [ms]
[OGL LOG][Proc: 0]p_rhs: call_update: 3.155 [ms]
[OGL LOG][Proc: 0]p: init_precond: 0.038 [ms]
[OGL LOG][StoppingCriterion.H:239] Creating stopping criterion with minIter 2400 frequency 9
[OGL LOG][Proc: 0]p: generate_solver: 0.022 [ms]
[OGL LOG][Proc: 0]p: solve: 9349.23 [ms]
[OGL LOG][Proc: 0]p: copy_x_back: 5.05 [ms]
[OGL LOG][lduLduBase.H:330] 
Statistics:
	Time per iteration: 3889 [mu s]
	Time per residual norm calculation: 246.000000 [mu s]
	Time per iteration and DOF: 0.031112 [ns]
	Retrieve results bandwidth 4.109000 [GByte/s]
[OGL LOG][Proc: 0]p: solve_multi_gpu: 9558.3 [ms]
nonedpcppGKOCG:  Solving for p, Initial residual = 0.955741, Final residual = 2.49449e-05, No Iterations 2404
[INFO] SolveP: 9631.11 [ms]
time step continuity errors : sum local = 2.04597e-09, global = 2.9701e-23, cumulative = -1.01905e-21
[INFO] ContinuityError: 44.697 [ms]
[INFO] CorrectBoundary: 5.898 [ms]
[INFO] PISOStep: 10261.6 [ms]
[INFO] MatrixAssemblyPI: 282.393 [ms]
[INFO] AdjustPhi: 55.791 [ms]
[INFO] ConstrainPressure: 0.002 [ms]
[INFO] MatrixAssemblyPII: 87.44 [ms]
[OGL LOG][Proc: 0]: global_index_init: 0.317 [ms]
[OGL LOG][Proc: 0]p_local_coeffs: call_update: 0 [ms]
[OGL LOG][Proc: 0]p_non_local_coeffs: call_update: 0 [ms]
[OGL LOG][Proc: 0]p: update_local_matrix_data: 54.746 [ms]
[OGL LOG][Proc: 0]p: update_non_local_matrix_data: 0.782 [ms]
[OGL LOG][Proc: 0]p: regenerate_distributed_matrix: 190.263 [ms]
[OGL LOG][Proc: 0]p_matrix: call_update: 191.268 [ms]
[OGL LOG][Proc: 0]p_rhs: call_update: 4.618 [ms]
[OGL LOG][Proc: 0]p: init_precond: 0.036 [ms]
[OGL LOG][StoppingCriterion.H:239] Creating stopping criterion with minIter 1442 frequency 8
[OGL LOG][Proc: 0]p: generate_solver: 0.021 [ms]
[OGL LOG][Proc: 0]p: solve: 8320.33 [ms]
[OGL LOG][Proc: 0]p: copy_x_back: 4.676 [ms]
[OGL LOG][lduLduBase.H:330] 
Statistics:
	Time per iteration: 4331 [mu s]
	Time per residual norm calculation: 299.000000 [mu s]
	Time per iteration and DOF: 0.034648 [ns]
	Retrieve results bandwidth 4.438000 [GByte/s]
[OGL LOG][Proc: 0]p: solve_multi_gpu: 8534.1 [ms]
nonedpcppGKOCG:  Solving for p, Initial residual = 0.921521, Final residual = 9.2897e-05, No Iterations 1921
[INFO] SolveP: 8596.95 [ms]
time step continuity errors : sum local = 7.17863e-09, global = 2.52691e-23, cumulative = -9.93784e-22
[INFO] ContinuityError: 51.674 [ms]
[INFO] CorrectBoundary: 7.635 [ms]
[INFO] PISOStep: 9204.45 [ms]
[INFO] TimeStep: 22330.8 [ms]
ExecutionTime = 141.22 s  ClockTime = 146 s

Time = 0.0004

Courant Number mean: 0.0180359 max: 0.480051
[INFO] MatrixAssemblyU: 252.053 [ms]
DILUPBiCGStab:  Solving for Ux, Initial residual = 0.0437088, Final residual = 0.00706262, No Iterations 5
DILUPBiCGStab:  Solving for Uy, Initial residual = 0.246734, Final residual = 0.0358264, No Iterations 5
DILUPBiCGStab:  Solving for Uz, Initial residual = 0.806448, Final residual = 0.0885394, No Iterations 5
[INFO] MomentumPredictor: 2626.51 [ms]
[INFO] MatrixAssemblyPI: 279.486 [ms]
[INFO] AdjustPhi: 59.519 [ms]
[INFO] ConstrainPressure: 0.002 [ms]
[INFO] MatrixAssemblyPII: 88.297 [ms]
[OGL LOG][Proc: 0]: global_index_init: 0.342 [ms]
[OGL LOG][Proc: 0]p_local_coeffs: call_update: 0 [ms]
[OGL LOG][Proc: 0]p_non_local_coeffs: call_update: 0 [ms]
[OGL LOG][Proc: 0]p: update_local_matrix_data: 57.137 [ms]
[OGL LOG][Proc: 0]p: update_non_local_matrix_data: 0.784 [ms]
[OGL LOG][Proc: 0]p: regenerate_distributed_matrix: 203.063 [ms]
[OGL LOG][Proc: 0]p_matrix: call_update: 204.443 [ms]
[OGL LOG][Proc: 0]p_rhs: call_update: 2.715 [ms]
[OGL LOG][Proc: 0]p: init_precond: 0.05 [ms]
[OGL LOG][StoppingCriterion.H:239] Creating stopping criterion with minIter 1152 frequency 7
[OGL LOG][Proc: 0]p: generate_solver: 0.021 [ms]
[OGL LOG][Proc: 0]p: solve: 7361.43 [ms]
[OGL LOG][Proc: 0]p: copy_x_back: 5.123 [ms]
[OGL LOG][lduLduBase.H:330] 
Statistics:
	Time per iteration: 3892 [mu s]
	Time per residual norm calculation: 230.000000 [mu s]
	Time per iteration and DOF: 0.031136 [ns]
	Retrieve results bandwidth 4.051000 [GByte/s]
[OGL LOG][Proc: 0]p: solve_multi_gpu: 7582.91 [ms]
nonedpcppGKOCG:  Solving for p, Initial residual = 0.958856, Final residual = 8.80919e-05, No Iterations 1891
[INFO] SolveP: 7648.2 [ms]
time step continuity errors : sum local = 9.44671e-09, global = -4.55983e-23, cumulative = -1.03938e-21
[INFO] ContinuityError: 50.927 [ms]
[INFO] CorrectBoundary: 2.391 [ms]
[INFO] PISOStep: 8263.61 [ms]
[INFO] MatrixAssemblyPI: 295.74 [ms]
[INFO] AdjustPhi: 49.851 [ms]
[INFO] ConstrainPressure: 0.002 [ms]
[INFO] MatrixAssemblyPII: 96.819 [ms]
[OGL LOG][Proc: 0]: global_index_init: 0.291 [ms]
[OGL LOG][Proc: 0]p_local_coeffs: call_update: 0 [ms]
[OGL LOG][Proc: 0]p_non_local_coeffs: call_update: 0 [ms]
[OGL LOG][Proc: 0]p: update_local_matrix_data: 53.792 [ms]
[OGL LOG][Proc: 0]p: update_non_local_matrix_data: 0.827 [ms]
[OGL LOG][Proc: 0]p: regenerate_distributed_matrix: 199.75 [ms]
[OGL LOG][Proc: 0]p_matrix: call_update: 200.791 [ms]
[OGL LOG][Proc: 0]p_rhs: call_update: 4.386 [ms]
[OGL LOG][Proc: 0]p: init_precond: 0.039 [ms]
[OGL LOG][StoppingCriterion.H:239] Creating stopping criterion with minIter 1134 frequency 6
[OGL LOG][Proc: 0]p: generate_solver: 0.022 [ms]
[OGL LOG][Proc: 0]p: solve: 7689.4 [ms]
[OGL LOG][Proc: 0]p: copy_x_back: 4.745 [ms]
[OGL LOG][lduLduBase.H:330] 
Statistics:
	Time per iteration: 4079 [mu s]
	Time per residual norm calculation: 319.000000 [mu s]
	Time per iteration and DOF: 0.032632 [ns]
	Retrieve results bandwidth 4.373000 [GByte/s]
[OGL LOG][Proc: 0]p: solve_multi_gpu: 7916.24 [ms]
nonedpcppGKOCG:  Solving for p, Initial residual = 0.903109, Final residual = 9.16737e-05, No Iterations 1885
[INFO] SolveP: 7978.32 [ms]
time step continuity errors : sum local = 9.79423e-09, global = -4.3632e-22, cumulative = -1.4757e-21
[INFO] ContinuityError: 48.692 [ms]
[INFO] CorrectBoundary: 5.445 [ms]
[INFO] PISOStep: 8602.5 [ms]
[INFO] TimeStep: 19794.6 [ms]
ExecutionTime = 161.02 s  ClockTime = 165 s

Time = 0.0005

Courant Number mean: 0.020755 max: 0.612082
[INFO] MatrixAssemblyU: 256.032 [ms]
DILUPBiCGStab:  Solving for Ux, Initial residual = 0.0419492, Final residual = 0.00656694, No Iterations 5
DILUPBiCGStab:  Solving for Uy, Initial residual = 0.23349, Final residual = 0.0298299, No Iterations 5
DILUPBiCGStab:  Solving for Uz, Initial residual = 0.784539, Final residual = 0.0750628, No Iterations 5
[INFO] MomentumPredictor: 2579.84 [ms]
[INFO] MatrixAssemblyPI: 298.347 [ms]
[INFO] AdjustPhi: 46.146 [ms]
[INFO] ConstrainPressure: 0.002 [ms]
[INFO] MatrixAssemblyPII: 95.586 [ms]
[OGL LOG][Proc: 0]: global_index_init: 0.188 [ms]
[OGL LOG][Proc: 0]p_local_coeffs: call_update: 0 [ms]
[OGL LOG][Proc: 0]p_non_local_coeffs: call_update: 0 [ms]
[OGL LOG][Proc: 0]p: update_local_matrix_data: 63.137 [ms]
[OGL LOG][Proc: 0]p: update_non_local_matrix_data: 0.871 [ms]
[OGL LOG][Proc: 0]p: regenerate_distributed_matrix: 199.61 [ms]
[OGL LOG][Proc: 0]p_matrix: call_update: 200.576 [ms]
[OGL LOG][Proc: 0]p_rhs: call_update: 3.989 [ms]
[OGL LOG][Proc: 0]p: init_precond: 0.04 [ms]
[OGL LOG][StoppingCriterion.H:239] Creating stopping criterion with minIter 1131 frequency 7
[OGL LOG][Proc: 0]p: generate_solver: 0.022 [ms]
[OGL LOG][Proc: 0]p: solve: 17450 [ms]
[OGL LOG][Proc: 0]p: copy_x_back: 6.055 [ms]
[OGL LOG][lduLduBase.H:330] 
Statistics:
	Time per iteration: 4506 [mu s]
	Time per residual norm calculation: 294.000000 [mu s]
	Time per iteration and DOF: 0.036048 [ns]
	Retrieve results bandwidth 3.427000 [GByte/s]
[OGL LOG][Proc: 0]p: solve_multi_gpu: 17665.7 [ms]
nonedpcppGKOCG:  Solving for p, Initial residual = 0.970504, Final residual = 9.30583e-05, No Iterations 3872
[INFO] SolveP: 17740.9 [ms]
time step continuity errors : sum local = 1.23339e-08, global = -7.36604e-23, cumulative = -1.54936e-21
[INFO] ContinuityError: 42.079 [ms]
[INFO] CorrectBoundary: 17.088 [ms]
[INFO] PISOStep: 18366.5 [ms]
[INFO] MatrixAssemblyPI: 280.807 [ms]
[INFO] AdjustPhi: 59.579 [ms]
[INFO] ConstrainPressure: 0.002 [ms]
[INFO] MatrixAssemblyPII: 87.875 [ms]
[OGL LOG][Proc: 0]: global_index_init: 0.266 [ms]
[OGL LOG][Proc: 0]p_local_coeffs: call_update: 0 [ms]
[OGL LOG][Proc: 0]p_non_local_coeffs: call_update: 0 [ms]
[OGL LOG][Proc: 0]p: update_local_matrix_data: 56.432 [ms]
[OGL LOG][Proc: 0]p: update_non_local_matrix_data: 0.915 [ms]
[OGL LOG][Proc: 0]p: regenerate_distributed_matrix: 201.011 [ms]
[OGL LOG][Proc: 0]p_matrix: call_update: 202.521 [ms]
[OGL LOG][Proc: 0]p_rhs: call_update: 2.419 [ms]
[OGL LOG][Proc: 0]p: init_precond: 0.058 [ms]
[OGL LOG][StoppingCriterion.H:239] Creating stopping criterion with minIter 2323 frequency 10
[OGL LOG][Proc: 0]p: generate_solver: 0.021 [ms]
[OGL LOG][Proc: 0]p: solve: 15013.1 [ms]
[OGL LOG][Proc: 0]p: copy_x_back: 5.261 [ms]
[OGL LOG][lduLduBase.H:330] 
Statistics:
	Time per iteration: 3878 [mu s]
	Time per residual norm calculation: 225.000000 [mu s]
	Time per iteration and DOF: 0.031024 [ns]
	Retrieve results bandwidth 3.944000 [GByte/s]
[OGL LOG][Proc: 0]p: solve_multi_gpu: 15232 [ms]
nonedpcppGKOCG:  Solving for p, Initial residual = 0.929266, Final residual = 9.12459e-05, No Iterations 3871
[INFO] SolveP: 15297.5 [ms]
time step continuity errors : sum local = 1.20867e-08, global = 1.32762e-23, cumulative = -1.53609e-21
[INFO] ContinuityError: 48.279 [ms]
[INFO] CorrectBoundary: 2.118 [ms]
[INFO] PISOStep: 15916 [ms]
[INFO] TimeStep: 37164.3 [ms]
ExecutionTime = 198.2 s  ClockTime = 203 s

Time = 0.0006

Courant Number mean: 0.0227981 max: 0.486217
[INFO] MatrixAssemblyU: 257.387 [ms]
DILUPBiCGStab:  Solving for Ux, Initial residual = 0.0434526, Final residual = 0.00635659, No Iterations 5
DILUPBiCGStab:  Solving for Uy, Initial residual = 0.231733, Final residual = 0.0265638, No Iterations 5
DILUPBiCGStab:  Solving for Uz, Initial residual = 0.744364, Final residual = 0.0642174, No Iterations 5
[INFO] MomentumPredictor: 2450.15 [ms]
[INFO] MatrixAssemblyPI: 296.423 [ms]
[INFO] AdjustPhi: 24.801 [ms]
[INFO] ConstrainPressure: 0.002 [ms]
[INFO] MatrixAssemblyPII: 94.698 [ms]
[OGL LOG][Proc: 0]: global_index_init: 0.052 [ms]
[OGL LOG][Proc: 0]p_local_coeffs: call_update: 0 [ms]
[OGL LOG][Proc: 0]p_non_local_coeffs: call_update: 0 [ms]
[OGL LOG][Proc: 0]p: update_local_matrix_data: 60.675 [ms]
[OGL LOG][Proc: 0]p: update_non_local_matrix_data: 0.852 [ms]
[OGL LOG][Proc: 0]p: regenerate_distributed_matrix: 185.279 [ms]
[OGL LOG][Proc: 0]p_matrix: call_update: 186.321 [ms]
[OGL LOG][Proc: 0]p_rhs: call_update: 4.724 [ms]
[OGL LOG][Proc: 0]p: init_precond: 0.031 [ms]
[OGL LOG][StoppingCriterion.H:239] Creating stopping criterion with minIter 2322 frequency 9
[OGL LOG][Proc: 0]p: generate_solver: 0.016 [ms]
[OGL LOG][Proc: 0]p: solve: 17703.8 [ms]
[OGL LOG][Proc: 0]p: copy_x_back: 5.085 [ms]
[OGL LOG][lduLduBase.H:330] 
Statistics:
	Time per iteration: 4584 [mu s]
	Time per residual norm calculation: 297.000000 [mu s]
	Time per iteration and DOF: 0.036672 [ns]
	Retrieve results bandwidth 4.081000 [GByte/s]
[OGL LOG][Proc: 0]p: solve_multi_gpu: 17906.7 [ms]
nonedpcppGKOCG:  Solving for p, Initial residual = 0.972927, Final residual = 9.77944e-05, No Iterations 3862
[INFO] SolveP: 17978.3 [ms]
time step continuity errors : sum local = 1.65402e-08, global = 6.40134e-23, cumulative = -1.47207e-21
[INFO] ContinuityError: 43.235 [ms]
[INFO] CorrectBoundary: 0.613 [ms]
[INFO] PISOStep: 18567.5 [ms]
[INFO] MatrixAssemblyPI: 315.528 [ms]
[INFO] AdjustPhi: 22.828 [ms]
[INFO] ConstrainPressure: 0.002 [ms]
[INFO] MatrixAssemblyPII: 100.868 [ms]
[OGL LOG][Proc: 0]: global_index_init: 0.142 [ms]
[OGL LOG][Proc: 0]p_local_coeffs: call_update: 0 [ms]
[OGL LOG][Proc: 0]p_non_local_coeffs: call_update: 0 [ms]
[OGL LOG][Proc: 0]p: update_local_matrix_data: 58.095 [ms]
[OGL LOG][Proc: 0]p: update_non_local_matrix_data: 0.91 [ms]
[OGL LOG][Proc: 0]p: regenerate_distributed_matrix: 196.448 [ms]
[OGL LOG][Proc: 0]p_matrix: call_update: 197.709 [ms]
[OGL LOG][Proc: 0]p_rhs: call_update: 2.948 [ms]
[OGL LOG][Proc: 0]p: init_precond: 0.048 [ms]
[OGL LOG][StoppingCriterion.H:239] Creating stopping criterion with minIter 2317 frequency 10
[OGL LOG][Proc: 0]p: generate_solver: 0.021 [ms]
[OGL LOG][Proc: 0]p: solve: 16579 [ms]
[OGL LOG][Proc: 0]p: copy_x_back: 5.941 [ms]
[OGL LOG][lduLduBase.H:330] 
Statistics:
	Time per iteration: 4293 [mu s]
	Time per residual norm calculation: 224.000000 [mu s]
	Time per iteration and DOF: 0.034344 [ns]
	Retrieve results bandwidth 3.493000 [GByte/s]
[OGL LOG][Proc: 0]p: solve_multi_gpu: 16790.5 [ms]
nonedpcppGKOCG:  Solving for p, Initial residual = 0.915915, Final residual = 9.39629e-05, No Iterations 3861
[INFO] SolveP: 16860.9 [ms]
time step continuity errors : sum local = 1.61331e-08, global = -3.58169e-23, cumulative = -1.50789e-21
[INFO] ContinuityError: 47.539 [ms]
[INFO] CorrectBoundary: 14.199 [ms]
[INFO] PISOStep: 17474.8 [ms]
[INFO] TimeStep: 38789.8 [ms]
ExecutionTime = 237.01 s  ClockTime = 241 s

Time = 0.0007

Courant Number mean: 0.0248237 max: 0.762302
[INFO] MatrixAssemblyU: 259.824 [ms]
DILUPBiCGStab:  Solving for Ux, Initial residual = 0.0468422, Final residual = 0.00616568, No Iterations 5
DILUPBiCGStab:  Solving for Uy, Initial residual = 0.258286, Final residual = 0.0263519, No Iterations 5
DILUPBiCGStab:  Solving for Uz, Initial residual = 0.747817, Final residual = 0.0582507, No Iterations 5
[INFO] MomentumPredictor: 2547.49 [ms]
[INFO] MatrixAssemblyPI: 297.438 [ms]
[INFO] AdjustPhi: 24.41 [ms]
[INFO] ConstrainPressure: 0.002 [ms]
[INFO] MatrixAssemblyPII: 94.983 [ms]
[OGL LOG][Proc: 0]: global_index_init: 0.165 [ms]
[OGL LOG][Proc: 0]p_local_coeffs: call_update: 0 [ms]
[OGL LOG][Proc: 0]p_non_local_coeffs: call_update: 0 [ms]
[OGL LOG][Proc: 0]p: update_local_matrix_data: 61.354 [ms]
[OGL LOG][Proc: 0]p: update_non_local_matrix_data: 1.057 [ms]
[OGL LOG][Proc: 0]p: regenerate_distributed_matrix: 203.116 [ms]
[OGL LOG][Proc: 0]p_matrix: call_update: 204.804 [ms]
[OGL LOG][Proc: 0]p_rhs: call_update: 2.357 [ms]
[OGL LOG][Proc: 0]p: init_precond: 0.031 [ms]
[OGL LOG][StoppingCriterion.H:239] Creating stopping criterion with minIter 2316 frequency 9
[OGL LOG][Proc: 0]p: generate_solver: 0.016 [ms]
[OGL LOG][Proc: 0]p: solve: 16120.9 [ms]
[OGL LOG][Proc: 0]p: copy_x_back: 4.657 [ms]
[OGL LOG][lduLduBase.H:330] 
Statistics:
	Time per iteration: 4193 [mu s]
	Time per residual norm calculation: 283.000000 [mu s]
	Time per iteration and DOF: 0.033544 [ns]
	Retrieve results bandwidth 4.456000 [GByte/s]
[OGL LOG][Proc: 0]p: solve_multi_gpu: 16339.8 [ms]
nonedpcppGKOCG:  Solving for p, Initial residual = 0.978191, Final residual = 9.93996e-05, No Iterations 3844
[INFO] SolveP: 16409.9 [ms]
time step continuity errors : sum local = 2.12035e-08, global = -1.39856e-22, cumulative = -1.64775e-21
[INFO] ContinuityError: 52.02 [ms]
[INFO] CorrectBoundary: 3.945 [ms]
[INFO] PISOStep: 16998.7 [ms]
[INFO] MatrixAssemblyPI: 299.844 [ms]
[INFO] AdjustPhi: 46.648 [ms]
[INFO] ConstrainPressure: 0.002 [ms]
[INFO] MatrixAssemblyPII: 91.934 [ms]
[OGL LOG][Proc: 0]: global_index_init: 0.313 [ms]
[OGL LOG][Proc: 0]p_local_coeffs: call_update: 0 [ms]
[OGL LOG][Proc: 0]p_non_local_coeffs: call_update: 0 [ms]
[OGL LOG][Proc: 0]p: update_local_matrix_data: 54.17 [ms]
[OGL LOG][Proc: 0]p: update_non_local_matrix_data: 0.812 [ms]
[OGL LOG][Proc: 0]p: regenerate_distributed_matrix: 200.936 [ms]
[OGL LOG][Proc: 0]p_matrix: call_update: 201.964 [ms]
[OGL LOG][Proc: 0]p_rhs: call_update: 4.171 [ms]
[OGL LOG][Proc: 0]p: init_precond: 0.039 [ms]
[OGL LOG][StoppingCriterion.H:239] Creating stopping criterion with minIter 2306 frequency 10
[OGL LOG][Proc: 0]p: generate_solver: 0.018 [ms]
[OGL LOG][Proc: 0]p: solve: 18392 [ms]
[OGL LOG][Proc: 0]p: copy_x_back: 5.564 [ms]
[OGL LOG][lduLduBase.H:330] 
Statistics:
	Time per iteration: 4788 [mu s]
	Time per residual norm calculation: 311.000000 [mu s]
	Time per iteration and DOF: 0.038304 [ns]
	Retrieve results bandwidth 3.730000 [GByte/s]
[OGL LOG][Proc: 0]p: solve_multi_gpu: 18620.5 [ms]
nonedpcppGKOCG:  Solving for p, Initial residual = 0.931572, Final residual = 9.97657e-05, No Iterations 3841
[INFO] SolveP: 18685.6 [ms]
time step continuity errors : sum local = 2.13353e-08, global = 7.9947e-23, cumulative = -1.5678e-21
[INFO] ContinuityError: 50.065 [ms]
[INFO] CorrectBoundary: 4.835 [ms]
[INFO] PISOStep: 19305.6 [ms]
[INFO] TimeStep: 39151.7 [ms]
ExecutionTime = 276.18 s  ClockTime = 281 s

Time = 0.0008

Courant Number mean: 0.0263473 max: 0.542777
[INFO] MatrixAssemblyU: 258.035 [ms]
DILUPBiCGStab:  Solving for Ux, Initial residual = 0.054281, Final residual = 0.00635816, No Iterations 5
DILUPBiCGStab:  Solving for Uy, Initial residual = 0.26968, Final residual = 0.0239048, No Iterations 5
DILUPBiCGStab:  Solving for Uz, Initial residual = 0.742243, Final residual = 0.0549302, No Iterations 5
[INFO] MomentumPredictor: 2596.27 [ms]
[INFO] MatrixAssemblyPI: 296.275 [ms]
[INFO] AdjustPhi: 53.077 [ms]
[INFO] ConstrainPressure: 0.002 [ms]
[INFO] MatrixAssemblyPII: 98.186 [ms]
[OGL LOG][Proc: 0]: global_index_init: 0.053 [ms]
[OGL LOG][Proc: 0]p_local_coeffs: call_update: 0 [ms]
[OGL LOG][Proc: 0]p_non_local_coeffs: call_update: 0 [ms]
[OGL LOG][Proc: 0]p: update_local_matrix_data: 60.138 [ms]
[OGL LOG][Proc: 0]p: update_non_local_matrix_data: 0.971 [ms]
[OGL LOG][Proc: 0]p: regenerate_distributed_matrix: 199.945 [ms]
[OGL LOG][Proc: 0]p_matrix: call_update: 200.949 [ms]
[OGL LOG][Proc: 0]p_rhs: call_update: 4.281 [ms]
[OGL LOG][Proc: 0]p: init_precond: 0.048 [ms]
[OGL LOG][StoppingCriterion.H:239] Creating stopping criterion with minIter 2304 frequency 10
[OGL LOG][Proc: 0]p: generate_solver: 0.021 [ms]
[OGL LOG][Proc: 0]p: solve: 14982.6 [ms]
[OGL LOG][Proc: 0]p: copy_x_back: 5.116 [ms]
[OGL LOG][lduLduBase.H:330] 
Statistics:
	Time per iteration: 3890 [mu s]
	Time per residual norm calculation: 227.000000 [mu s]
	Time per iteration and DOF: 0.031120 [ns]
	Retrieve results bandwidth 4.056000 [GByte/s]
[OGL LOG][Proc: 0]p: solve_multi_gpu: 15203 [ms]
nonedpcppGKOCG:  Solving for p, Initial residual = 0.980466, Final residual = 9.29039e-05, No Iterations 3851
[INFO] SolveP: 15274.9 [ms]
time step continuity errors : sum local = 2.53084e-08, global = -6.48034e-22, cumulative = -2.21583e-21
[INFO] ContinuityError: 39.86 [ms]
[INFO] CorrectBoundary: 0.656 [ms]
[INFO] PISOStep: 15895.7 [ms]
[INFO] MatrixAssemblyPI: 315.316 [ms]
[INFO] AdjustPhi: 21.807 [ms]
[INFO] ConstrainPressure: 0.002 [ms]
[INFO] MatrixAssemblyPII: 93.777 [ms]
[OGL LOG][Proc: 0]: global_index_init: 0.174 [ms]
[OGL LOG][Proc: 0]p_local_coeffs: call_update: 0 [ms]
[OGL LOG][Proc: 0]p_non_local_coeffs: call_update: 0 [ms]
[OGL LOG][Proc: 0]p: update_local_matrix_data: 54.424 [ms]
[OGL LOG][Proc: 0]p: update_non_local_matrix_data: 0.853 [ms]
[OGL LOG][Proc: 0]p: regenerate_distributed_matrix: 198.675 [ms]
[OGL LOG][Proc: 0]p_matrix: call_update: 199.742 [ms]
[OGL LOG][Proc: 0]p_rhs: call_update: 4.86 [ms]
[OGL LOG][Proc: 0]p: init_precond: 0.032 [ms]
[OGL LOG][StoppingCriterion.H:239] Creating stopping criterion with minIter 2310 frequency 9
[OGL LOG][Proc: 0]p: generate_solver: 0.016 [ms]
[OGL LOG][Proc: 0]p: solve: 18917.8 [ms]
[OGL LOG][Proc: 0]p: copy_x_back: 5.091 [ms]
[OGL LOG][lduLduBase.H:330] 
Statistics:
	Time per iteration: 4921 [mu s]
	Time per residual norm calculation: 299.000000 [mu s]
	Time per iteration and DOF: 0.039368 [ns]
	Retrieve results bandwidth 4.076000 [GByte/s]
[OGL LOG][Proc: 0]p: solve_multi_gpu: 19138.8 [ms]
nonedpcppGKOCG:  Solving for p, Initial residual = 0.922405, Final residual = 9.26958e-05, No Iterations 3844
[INFO] SolveP: 19201.9 [ms]
time step continuity errors : sum local = 2.56024e-08, global = 5.07889e-23, cumulative = -2.16504e-21
[INFO] ContinuityError: 43.064 [ms]
[INFO] CorrectBoundary: 0.558 [ms]
[INFO] PISOStep: 19815.4 [ms]
[INFO] TimeStep: 38623.7 [ms]
ExecutionTime = 314.83 s  ClockTime = 319 s

Time = 0.0009

Courant Number mean: 0.0281472 max: 1.18006
[INFO] MatrixAssemblyU: 259.167 [ms]
DILUPBiCGStab:  Solving for Ux, Initial residual = 0.0622196, Final residual = 0.00635786, No Iterations 5
DILUPBiCGStab:  Solving for Uy, Initial residual = 0.313535, Final residual = 0.0259145, No Iterations 5
DILUPBiCGStab:  Solving for Uz, Initial residual = 0.75233, Final residual = 0.0524855, No Iterations 5
[INFO] MomentumPredictor: 2551.86 [ms]
[INFO] MatrixAssemblyPI: 300.01 [ms]
[INFO] AdjustPhi: 44.881 [ms]
[INFO] ConstrainPressure: 0.002 [ms]
[INFO] MatrixAssemblyPII: 98.815 [ms]
[OGL LOG][Proc: 0]: global_index_init: 0.062 [ms]
[OGL LOG][Proc: 0]p_local_coeffs: call_update: 0 [ms]
[OGL LOG][Proc: 0]p_non_local_coeffs: call_update: 0 [ms]
[OGL LOG][Proc: 0]p: update_local_matrix_data: 63.64 [ms]
[OGL LOG][Proc: 0]p: update_non_local_matrix_data: 0.906 [ms]
[OGL LOG][Proc: 0]p: regenerate_distributed_matrix: 201.864 [ms]
[OGL LOG][Proc: 0]p_matrix: call_update: 203.075 [ms]
[OGL LOG][Proc: 0]p_rhs: call_update: 2.957 [ms]
[OGL LOG][Proc: 0]p: init_precond: 0.039 [ms]
[OGL LOG][StoppingCriterion.H:239] Creating stopping criterion with minIter 2306 frequency 9
[OGL LOG][Proc: 0]p: generate_solver: 0.022 [ms]
[OGL LOG][Proc: 0]p: solve: 14713 [ms]
[OGL LOG][Proc: 0]p: copy_x_back: 5.818 [ms]
[OGL LOG][lduLduBase.H:330] 
Statistics:
	Time per iteration: 3882 [mu s]
	Time per residual norm calculation: 241.000000 [mu s]
	Time per iteration and DOF: 0.031056 [ns]
	Retrieve results bandwidth 3.567000 [GByte/s]
[OGL LOG][Proc: 0]p: solve_multi_gpu: 14929.9 [ms]
nonedpcppGKOCG:  Solving for p, Initial residual = 0.982753, Final residual = 9.75278e-05, No Iterations 3790
[INFO] SolveP: 15005.3 [ms]
time step continuity errors : sum local = 3.40741e-08, global = 5.64137e-22, cumulative = -1.60091e-21
[INFO] ContinuityError: 50.399 [ms]
[INFO] CorrectBoundary: 6.622 [ms]
[INFO] PISOStep: 15640.1 [ms]
[INFO] MatrixAssemblyPI: 286.131 [ms]
[INFO] AdjustPhi: 54.767 [ms]
[INFO] ConstrainPressure: 0.002 [ms]
[INFO] MatrixAssemblyPII: 92.527 [ms]
[OGL LOG][Proc: 0]: global_index_init: 0.221 [ms]
[OGL LOG][Proc: 0]p_local_coeffs: call_update: 0 [ms]
[OGL LOG][Proc: 0]p_non_local_coeffs: call_update: 0 [ms]
[OGL LOG][Proc: 0]p: update_local_matrix_data: 53.759 [ms]
[OGL LOG][Proc: 0]p: update_non_local_matrix_data: 0.969 [ms]
[OGL LOG][Proc: 0]p: regenerate_distributed_matrix: 193.682 [ms]
[OGL LOG][Proc: 0]p_matrix: call_update: 194.705 [ms]
[OGL LOG][Proc: 0]p_rhs: call_update: 3.99 [ms]
[OGL LOG][Proc: 0]p: init_precond: 0.057 [ms]
[OGL LOG][StoppingCriterion.H:239] Creating stopping criterion with minIter 2274 frequency 9
[OGL LOG][Proc: 0]p: generate_solver: 0.022 [ms]
[OGL LOG][Proc: 0]p: solve: 18018.8 [ms]
[OGL LOG][Proc: 0]p: copy_x_back: 5.074 [ms]
[OGL LOG][lduLduBase.H:330] 
Statistics:
	Time per iteration: 4776 [mu s]
	Time per residual norm calculation: 292.000000 [mu s]
	Time per iteration and DOF: 0.038208 [ns]
	Retrieve results bandwidth 4.090000 [GByte/s]
[OGL LOG][Proc: 0]p: solve_multi_gpu: 18236.3 [ms]
nonedpcppGKOCG:  Solving for p, Initial residual = 0.9317, Final residual = 9.8049e-05, No Iterations 3772
[INFO] SolveP: 18299 [ms]
time step continuity errors : sum local = 3.44332e-08, global = -2.0663e-22, cumulative = -1.80754e-21
[INFO] ContinuityError: 53.223 [ms]
[INFO] CorrectBoundary: 1.29 [ms]
[INFO] PISOStep: 18912.3 [ms]
[INFO] TimeStep: 37407.3 [ms]
ExecutionTime = 352.24 s  ClockTime = 357 s

Time = 0.001

Courant Number mean: 0.029393 max: 1.2054
[INFO] MatrixAssemblyU: 258.651 [ms]
DILUPBiCGStab:  Solving for Ux, Initial residual = 0.0766442, Final residual = 0.00708372, No Iterations 5
DILUPBiCGStab:  Solving for Uy, Initial residual = 0.337662, Final residual = 0.0248022, No Iterations 5
DILUPBiCGStab:  Solving for Uz, Initial residual = 0.754671, Final residual = 0.0517207, No Iterations 5
[INFO] MomentumPredictor: 2570.56 [ms]
[INFO] MatrixAssemblyPI: 295.672 [ms]
[INFO] AdjustPhi: 49.73 [ms]
[INFO] ConstrainPressure: 0.002 [ms]
[INFO] MatrixAssemblyPII: 99.157 [ms]
[OGL LOG][Proc: 0]: global_index_init: 0.056 [ms]
[OGL LOG][Proc: 0]p_local_coeffs: call_update: 0 [ms]
[OGL LOG][Proc: 0]p_non_local_coeffs: call_update: 0 [ms]
[OGL LOG][Proc: 0]p: update_local_matrix_data: 60.912 [ms]
[OGL LOG][Proc: 0]p: update_non_local_matrix_data: 0.775 [ms]
[OGL LOG][Proc: 0]p: regenerate_distributed_matrix: 199.733 [ms]
[OGL LOG][Proc: 0]p_matrix: call_update: 200.801 [ms]
[OGL LOG][Proc: 0]p_rhs: call_update: 3.759 [ms]
[OGL LOG][Proc: 0]p: init_precond: 0.033 [ms]
[OGL LOG][StoppingCriterion.H:239] Creating stopping criterion with minIter 2263 frequency 9
[OGL LOG][Proc: 0]p: generate_solver: 0.017 [ms]
[OGL LOG][Proc: 0]p: solve: 15008.2 [ms]
[OGL LOG][Proc: 0]p: copy_x_back: 4.777 [ms]
[OGL LOG][lduLduBase.H:330] 
Statistics:
	Time per iteration: 3904 [mu s]
	Time per residual norm calculation: 262.000000 [mu s]
	Time per iteration and DOF: 0.031232 [ns]
	Retrieve results bandwidth 4.344000 [GByte/s]
[OGL LOG][Proc: 0]p: solve_multi_gpu: 15226.4 [ms]
nonedpcppGKOCG:  Solving for p, Initial residual = 0.984997, Final residual = 9.57742e-05, No Iterations 3844
[INFO] SolveP: 15295.8 [ms]
time step continuity errors : sum local = 4.31962e-08, global = -3.30459e-23, cumulative = -1.84058e-21
[INFO] ContinuityError: 50.809 [ms]
[INFO] CorrectBoundary: 7.327 [ms]
[INFO] PISOStep: 15922.3 [ms]
[INFO] MatrixAssemblyPI: 290.102 [ms]
[INFO] AdjustPhi: 50.97 [ms]
[INFO] ConstrainPressure: 0.002 [ms]
[INFO] MatrixAssemblyPII: 91.576 [ms]
[OGL LOG][Proc: 0]: global_index_init: 0.255 [ms]
[OGL LOG][Proc: 0]p_local_coeffs: call_update: 0 [ms]
[OGL LOG][Proc: 0]p_non_local_coeffs: call_update: 0 [ms]
[OGL LOG][Proc: 0]p: update_local_matrix_data: 53.728 [ms]
[OGL LOG][Proc: 0]p: update_non_local_matrix_data: 0.948 [ms]
[OGL LOG][Proc: 0]p: regenerate_distributed_matrix: 196.117 [ms]
[OGL LOG][Proc: 0]p_matrix: call_update: 197.749 [ms]
[OGL LOG][Proc: 0]p_rhs: call_update: 2.072 [ms]
[OGL LOG][Proc: 0]p: init_precond: 0.046 [ms]
[OGL LOG][StoppingCriterion.H:239] Creating stopping criterion with minIter 2306 frequency 10
[OGL LOG][Proc: 0]p: generate_solver: 0.021 [ms]
[OGL LOG][Proc: 0]p: solve: 15363.1 [ms]
[OGL LOG][Proc: 0]p: copy_x_back: 5.749 [ms]
[OGL LOG][lduLduBase.H:330] 
Statistics:
	Time per iteration: 3999 [mu s]
	Time per residual norm calculation: 319.000000 [mu s]
	Time per iteration and DOF: 0.031992 [ns]
	Retrieve results bandwidth 3.610000 [GByte/s]
[OGL LOG][Proc: 0]p: solve_multi_gpu: 15580.2 [ms]
nonedpcppGKOCG:  Solving for p, Initial residual = 0.926291, Final residual = 9.55165e-05, No Iterations 3841
[INFO] SolveP: 15645 [ms]
time step continuity errors : sum local = 4.3624e-08, global = -5.57933e-22, cumulative = -2.39851e-21
[INFO] ContinuityError: 45.354 [ms]
[INFO] CorrectBoundary: 8.43 [ms]
[INFO] PISOStep: 16257.2 [ms]
[INFO] TimeStep: 35061.4 [ms]
ExecutionTime = 387.31 s  ClockTime = 392 s

Time = 0.0011

Courant Number mean: 0.0311922 max: 2.13866
[INFO] MatrixAssemblyU: 261.933 [ms]
DILUPBiCGStab:  Solving for Ux, Initial residual = 0.0905883, Final residual = 0.00744573, No Iterations 5
DILUPBiCGStab:  Solving for Uy, Initial residual = 0.389242, Final residual = 0.0274267, No Iterations 5
DILUPBiCGStab:  Solving for Uz, Initial residual = 0.762225, Final residual = 0.050055, No Iterations 5
[INFO] MomentumPredictor: 2596.01 [ms]
[INFO] MatrixAssemblyPI: 298.353 [ms]
[INFO] AdjustPhi: 47.807 [ms]
[INFO] ConstrainPressure: 0.002 [ms]
[INFO] MatrixAssemblyPII: 95.592 [ms]
[OGL LOG][Proc: 0]: global_index_init: 0.074 [ms]
[OGL LOG][Proc: 0]p_local_coeffs: call_update: 0 [ms]
[OGL LOG][Proc: 0]p_non_local_coeffs: call_update: 0 [ms]
[OGL LOG][Proc: 0]p: update_local_matrix_data: 63.656 [ms]
[OGL LOG][Proc: 0]p: update_non_local_matrix_data: 0.93 [ms]
[OGL LOG][Proc: 0]p: regenerate_distributed_matrix: 197.203 [ms]
[OGL LOG][Proc: 0]p_matrix: call_update: 198.243 [ms]
[OGL LOG][Proc: 0]p_rhs: call_update: 3.828 [ms]
[OGL LOG][Proc: 0]p: init_precond: 0.03 [ms]
[OGL LOG][StoppingCriterion.H:239] Creating stopping criterion with minIter 2304 frequency 11
[OGL LOG][Proc: 0]p: generate_solver: 0.016 [ms]
[OGL LOG][Proc: 0]p: solve: 17138.9 [ms]
[OGL LOG][Proc: 0]p: copy_x_back: 5.099 [ms]
[OGL LOG][lduLduBase.H:330] 
Statistics:
	Time per iteration: 4463 [mu s]
	Time per residual norm calculation: 301.000000 [mu s]
	Time per iteration and DOF: 0.035704 [ns]
	Retrieve results bandwidth 4.070000 [GByte/s]
[OGL LOG][Proc: 0]p: solve_multi_gpu: 17352 [ms]
nonedpcppGKOCG:  Solving for p, Initial residual = 0.985704, Final residual = 9.19732e-05, No Iterations 3840
[INFO] SolveP: 17427.1 [ms]
time step continuity errors : sum local = 5.38675e-08, global = -1.97158e-22, cumulative = -2.59567e-21
[INFO] ContinuityError: 41.861 [ms]
[INFO] CorrectBoundary: 3.322 [ms]
[INFO] PISOStep: 18046.5 [ms]
[INFO] MatrixAssemblyPI: 297.422 [ms]
[INFO] AdjustPhi: 44.614 [ms]
[INFO] ConstrainPressure: 0.002 [ms]
[INFO] MatrixAssemblyPII: 92.042 [ms]
[OGL LOG][Proc: 0]: global_index_init: 0.24 [ms]
[OGL LOG][Proc: 0]p_local_coeffs: call_update: 0 [ms]
[OGL LOG][Proc: 0]p_non_local_coeffs: call_update: 0 [ms]
[OGL LOG][Proc: 0]p: update_local_matrix_data: 53.738 [ms]
[OGL LOG][Proc: 0]p: update_non_local_matrix_data: 0.898 [ms]
[OGL LOG][Proc: 0]p: regenerate_distributed_matrix: 196.614 [ms]
[OGL LOG][Proc: 0]p_matrix: call_update: 197.657 [ms]
[OGL LOG][Proc: 0]p_rhs: call_update: 4.594 [ms]
[OGL LOG][Proc: 0]p: init_precond: 0.04 [ms]
[OGL LOG][StoppingCriterion.H:239] Creating stopping criterion with minIter 2304 frequency 10
[OGL LOG][Proc: 0]p: generate_solver: 0.016 [ms]
[OGL LOG][Proc: 0]p: solve: 14802.9 [ms]
[OGL LOG][Proc: 0]p: copy_x_back: 4.752 [ms]
[OGL LOG][lduLduBase.H:330] 
Statistics:
	Time per iteration: 3853 [mu s]
	Time per residual norm calculation: 233.000000 [mu s]
	Time per iteration and DOF: 0.030824 [ns]
	Retrieve results bandwidth 4.367000 [GByte/s]
[OGL LOG][Proc: 0]p: solve_multi_gpu: 15020.8 [ms]
nonedpcppGKOCG:  Solving for p, Initial residual = 0.931558, Final residual = 9.09804e-05, No Iterations 3841
[INFO] SolveP: 15082.7 [ms]
time step continuity errors : sum local = 5.36551e-08, global = -4.89112e-22, cumulative = -3.08479e-21
[INFO] ContinuityError: 51.503 [ms]
[INFO] CorrectBoundary: 9.74 [ms]
[INFO] PISOStep: 15704.2 [ms]
[INFO] TimeStep: 36656.9 [ms]
ExecutionTime = 423.99 s  ClockTime = 428 s

Time = 0.0012

Courant Number mean: 0.0323389 max: 2.59713
[INFO] MatrixAssemblyU: 256.397 [ms]
DILUPBiCGStab:  Solving for Ux, Initial residual = 0.115135, Final residual = 0.00870022, No Iterations 5
DILUPBiCGStab:  Solving for Uy, Initial residual = 0.423994, Final residual = 0.027556, No Iterations 5
DILUPBiCGStab:  Solving for Uz, Initial residual = 0.763565, Final residual = 0.0490518, No Iterations 5
[INFO] MomentumPredictor: 2589.15 [ms]
[INFO] MatrixAssemblyPI: 298.25 [ms]
[INFO] AdjustPhi: 28.877 [ms]
[INFO] ConstrainPressure: 0.002 [ms]
[INFO] MatrixAssemblyPII: 95.972 [ms]
[OGL LOG][Proc: 0]: global_index_init: 0.06 [ms]
[OGL LOG][Proc: 0]p_local_coeffs: call_update: 0 [ms]
[OGL LOG][Proc: 0]p_non_local_coeffs: call_update: 0 [ms]
[OGL LOG][Proc: 0]p: update_local_matrix_data: 60.813 [ms]
[OGL LOG][Proc: 0]p: update_non_local_matrix_data: 0.975 [ms]
[OGL LOG][Proc: 0]p: regenerate_distributed_matrix: 200.924 [ms]
[OGL LOG][Proc: 0]p_matrix: call_update: 201.951 [ms]
[OGL LOG][Proc: 0]p_rhs: call_update: 3.718 [ms]
[OGL LOG][Proc: 0]p: init_precond: 0.038 [ms]
[OGL LOG][StoppingCriterion.H:239] Creating stopping criterion with minIter 2304 frequency 9
[OGL LOG][Proc: 0]p: generate_solver: 0.021 [ms]
[OGL LOG][Proc: 0]p: solve: 15138.8 [ms]
[OGL LOG][Proc: 0]p: copy_x_back: 5.736 [ms]
[OGL LOG][lduLduBase.H:330] 
Statistics:
	Time per iteration: 3938 [mu s]
	Time per residual norm calculation: 232.000000 [mu s]
	Time per iteration and DOF: 0.031504 [ns]
	Retrieve results bandwidth 3.618000 [GByte/s]
[OGL LOG][Proc: 0]p: solve_multi_gpu: 15355.4 [ms]
nonedpcppGKOCG:  Solving for p, Initial residual = 0.987673, Final residual = 9.46524e-05, No Iterations 3844
[INFO] SolveP: 15428.3 [ms]
time step continuity errors : sum local = 7.2316e-08, global = -2.51132e-22, cumulative = -3.33592e-21
[INFO] ContinuityError: 48.618 [ms]
[INFO] CorrectBoundary: 18.627 [ms]
[INFO] PISOStep: 16028.8 [ms]
[INFO] MatrixAssemblyPI: 282.18 [ms]
[INFO] AdjustPhi: 70.057 [ms]
[INFO] ConstrainPressure: 0.002 [ms]
[INFO] MatrixAssemblyPII: 88.166 [ms]
[OGL LOG][Proc: 0]: global_index_init: 0.23 [ms]
[OGL LOG][Proc: 0]p_local_coeffs: call_update: 0 [ms]
[OGL LOG][Proc: 0]p_non_local_coeffs: call_update: 0 [ms]
[OGL LOG][Proc: 0]p: update_local_matrix_data: 54.069 [ms]
[OGL LOG][Proc: 0]p: update_non_local_matrix_data: 0.881 [ms]
[OGL LOG][Proc: 0]p: regenerate_distributed_matrix: 189.157 [ms]
[OGL LOG][Proc: 0]p_matrix: call_update: 190.312 [ms]
[OGL LOG][Proc: 0]p_rhs: call_update: 3.174 [ms]
[OGL LOG][Proc: 0]p: init_precond: 0.037 [ms]
[OGL LOG][StoppingCriterion.H:239] Creating stopping criterion with minIter 2306 frequency 9
[OGL LOG][Proc: 0]p: generate_solver: 0.021 [ms]
[OGL LOG][Proc: 0]p: solve: 15255 [ms]
[OGL LOG][Proc: 0]p: copy_x_back: 4.958 [ms]
[OGL LOG][lduLduBase.H:330] 
Statistics:
	Time per iteration: 3968 [mu s]
	Time per residual norm calculation: 311.000000 [mu s]
	Time per iteration and DOF: 0.031744 [ns]
	Retrieve results bandwidth 4.186000 [GByte/s]
[OGL LOG][Proc: 0]p: solve_multi_gpu: 15464.7 [ms]
nonedpcppGKOCG:  Solving for p, Initial residual = 0.928562, Final residual = 8.9099e-05, No Iterations 3844
[INFO] SolveP: 15527.3 [ms]
time step continuity errors : sum local = 6.88793e-08, global = -6.07192e-22, cumulative = -3.94311e-21
[INFO] ContinuityError: 50.63 [ms]
[INFO] CorrectBoundary: 12.007 [ms]
[INFO] PISOStep: 16151.6 [ms]
[INFO] TimeStep: 35069 [ms]
ExecutionTime = 459.07 s  ClockTime = 463 s

End

Finalising parallel run
