/*---------------------------------------------------------------------------*\
| =========                 |                                                 |
| \\      /  F ield         | OpenFOAM: The Open Source CFD Toolbox           |
|  \\    /   O peration     | Version:  2306                                  |
|   \\  /    A nd           | Website:  www.openfoam.com                      |
|    \\/     M anipulation  |                                                 |
\*---------------------------------------------------------------------------*/
Build  : a6e826bd55-20230630 OPENFOAM=2306 version=v2306
Arch   : "LSB;label=32;scalar=64"
Exec   : icoFoam -parallel -case /tmp/lidDrivenCavity3D/workspace/2c67b1ab5e99bf602d457071ee2964fb/case
Date   : Dec 09 2023
Time   : 09:22:57
Host   : nla-gpu2.ianm.kit.edu
PID    : 268906
I/O    : uncollated
Case   : /tmp/lidDrivenCavity3D/workspace/2c67b1ab5e99bf602d457071ee2964fb/case
nProcs : 16
Hosts  :
(
    (nla-gpu2.ianm.kit.edu 16)
)
Pstream initialized with:
    floatTransfer      : false
    nProcsSimpleSum    : 0
    nonBlockingExchange: 0 (tuning: 0)
    exchange algorithm : -1
    commsType          : nonBlocking
    polling iterations : 0
trapFpe: Floating point exception trapping enabled (FOAM_SIGFPE).
fileModificationChecking : Monitoring run-time modified files using timeStampMaster (fileModificationSkew 5, maxFileModificationPolls 20)
allowSystemOperations : Allowing user-supplied system call operations

// * * * * * * * * * * * * * * * * * * * * * * * * * * * * * * * * * * * * * //
Create time

--> FOAM Warning : 
    From void* Foam::dlLibraryTable::openLibrary(const Foam::fileName&, bool)
    in file db/dynamicLibrary/dlLibraryTable/dlLibraryTable.C at line 188
    Could not load "libpetscFoam.so"
libpetscFoam.so: cannot open shared object file: No such file or directory
Create mesh for time = 0


PISO: Operating solver in PISO mode

Reading transportProperties

Reading field p

Reading field U

Reading/calculating face flux field phi


Starting time loop

Time = 0.0005

Courant Number mean: 8.62851e-18 max: 8.67362e-15
[INFO] MatrixAssemblyU: 8.481 [ms]
DILUPBiCGStab:  Solving for Ux, Initial residual = 1, Final residual = 0.00283431, No Iterations 5
DILUPBiCGStab:  Solving for Uy:  solution singularity
DILUPBiCGStab:  Solving for Uz:  solution singularity
[INFO] MomentumPredictor: 31.181 [ms]
[INFO] MatrixAssemblyPI: 6.024 [ms]
[INFO] AdjustPhi: 0.664 [ms]
[INFO] ConstrainPressure: 0.198 [ms]
[INFO] MatrixAssemblyPII: 1.743 [ms]
GAMG:  Solving for p, Initial residual = 1, Final residual = 8.94835e-05, No Iterations 17
[INFO] SolveP: 118.623 [ms]
time step continuity errors : sum local = 1.92787e-08, global = -3.17224e-21, cumulative = -3.17224e-21
[INFO] ContinuityError: 1.477 [ms]
[INFO] CorrectBoundary: 0.065 [ms]
[INFO] PISOStep: 131.526 [ms]
[INFO] MatrixAssemblyPI: 5.527 [ms]
[INFO] AdjustPhi: 0.718 [ms]
[INFO] ConstrainPressure: 0.003 [ms]
[INFO] MatrixAssemblyPII: 2.075 [ms]
GAMG:  Solving for p, Initial residual = 0.73116, Final residual = 8.21496e-05, No Iterations 18
[INFO] SolveP: 107.788 [ms]
time step continuity errors : sum local = 2.35044e-08, global = -6.30312e-22, cumulative = -3.80255e-21
[INFO] ContinuityError: 1.177 [ms]
[INFO] CorrectBoundary: 0.052 [ms]
[INFO] PISOStep: 119.901 [ms]
[INFO] TimeStep: 292.662 [ms]
ExecutionTime = 0.57 s  ClockTime = 1 s

Time = 0.001

Courant Number mean: 0.0215183 max: 0.377124
[INFO] MatrixAssemblyU: 4.186 [ms]
DILUPBiCGStab:  Solving for Ux, Initial residual = 0.150309, Final residual = 0.00127598, No Iterations 5
DILUPBiCGStab:  Solving for Uy, Initial residual = 0.368273, Final residual = 0.00250965, No Iterations 5
DILUPBiCGStab:  Solving for Uz, Initial residual = 0.984525, Final residual = 0.00640618, No Iterations 5
[INFO] MomentumPredictor: 63.151 [ms]
[INFO] MatrixAssemblyPI: 6.764 [ms]
[INFO] AdjustPhi: 2.913 [ms]
[INFO] ConstrainPressure: 0.003 [ms]
[INFO] MatrixAssemblyPII: 1.688 [ms]
GAMG:  Solving for p, Initial residual = 0.691585, Final residual = 8.82677e-05, No Iterations 17
[INFO] SolveP: 106.289 [ms]
time step continuity errors : sum local = 2.82314e-08, global = 4.86858e-21, cumulative = 1.06603e-21
[INFO] ContinuityError: 1.572 [ms]
[INFO] CorrectBoundary: 0.133 [ms]
[INFO] PISOStep: 123.168 [ms]
[INFO] MatrixAssemblyPI: 6.21 [ms]
[INFO] AdjustPhi: 1.857 [ms]
[INFO] ConstrainPressure: 0.003 [ms]
[INFO] MatrixAssemblyPII: 1.792 [ms]
GAMG:  Solving for p, Initial residual = 0.620756, Final residual = 7.97077e-05, No Iterations 18
[INFO] SolveP: 110.766 [ms]
time step continuity errors : sum local = 2.61012e-08, global = 1.18121e-21, cumulative = 2.24724e-21
[INFO] ContinuityError: 0.91 [ms]
[INFO] CorrectBoundary: 0.062 [ms]
[INFO] PISOStep: 125.412 [ms]
[INFO] TimeStep: 316.963 [ms]
ExecutionTime = 0.9 s  ClockTime = 1 s

Time = 0.0015

Courant Number mean: 0.032477 max: 0.441243
[INFO] MatrixAssemblyU: 5.329 [ms]
DILUPBiCGStab:  Solving for Ux, Initial residual = 0.0531225, Final residual = 0.000379583, No Iterations 5
DILUPBiCGStab:  Solving for Uy, Initial residual = 0.124765, Final residual = 0.000649575, No Iterations 5
DILUPBiCGStab:  Solving for Uz, Initial residual = 0.596998, Final residual = 0.00472109, No Iterations 5
[INFO] MomentumPredictor: 52.071 [ms]
[INFO] MatrixAssemblyPI: 5.904 [ms]
[INFO] AdjustPhi: 0.292 [ms]
[INFO] ConstrainPressure: 0.004 [ms]
[INFO] MatrixAssemblyPII: 1.768 [ms]
GAMG:  Solving for p, Initial residual = 0.633457, Final residual = 9.38626e-05, No Iterations 19
[INFO] SolveP: 117.067 [ms]
time step continuity errors : sum local = 2.16793e-08, global = -2.40348e-21, cumulative = -1.56234e-22
[INFO] ContinuityError: 1.064 [ms]
[INFO] CorrectBoundary: 0.062 [ms]
[INFO] PISOStep: 128.752 [ms]
[INFO] MatrixAssemblyPI: 5.496 [ms]
[INFO] AdjustPhi: 0.641 [ms]
[INFO] ConstrainPressure: 0.003 [ms]
[INFO] MatrixAssemblyPII: 1.73 [ms]
GAMG:  Solving for p, Initial residual = 0.580893, Final residual = 8.8036e-05, No Iterations 19
[INFO] SolveP: 115.453 [ms]
time step continuity errors : sum local = 1.97906e-08, global = -2.0328e-22, cumulative = -3.59513e-22
[INFO] ContinuityError: 1.137 [ms]
[INFO] CorrectBoundary: 0.053 [ms]
[INFO] PISOStep: 127.568 [ms]
[INFO] TimeStep: 314.733 [ms]
ExecutionTime = 1.21 s  ClockTime = 1 s

Time = 0.002

Courant Number mean: 0.0388753 max: 0.452945
[INFO] MatrixAssemblyU: 4.198 [ms]
DILUPBiCGStab:  Solving for Ux, Initial residual = 0.0319135, Final residual = 0.0001976, No Iterations 5
DILUPBiCGStab:  Solving for Uy, Initial residual = 0.0814157, Final residual = 0.000429158, No Iterations 5
DILUPBiCGStab:  Solving for Uz, Initial residual = 0.311393, Final residual = 0.00204516, No Iterations 5
[INFO] MomentumPredictor: 51.286 [ms]
[INFO] MatrixAssemblyPI: 5.872 [ms]
[INFO] AdjustPhi: 0.388 [ms]
[INFO] ConstrainPressure: 0.003 [ms]
[INFO] MatrixAssemblyPII: 1.789 [ms]
GAMG:  Solving for p, Initial residual = 0.413737, Final residual = 9.99965e-05, No Iterations 16
[INFO] SolveP: 96.568 [ms]
time step continuity errors : sum local = 1.97663e-08, global = 7.40027e-21, cumulative = 7.04075e-21
[INFO] ContinuityError: 1.011 [ms]
[INFO] CorrectBoundary: 0.06 [ms]
[INFO] PISOStep: 108.209 [ms]
[INFO] MatrixAssemblyPI: 5.476 [ms]
[INFO] AdjustPhi: 0.618 [ms]
[INFO] ConstrainPressure: 0.003 [ms]
[INFO] MatrixAssemblyPII: 1.795 [ms]
GAMG:  Solving for p, Initial residual = 0.35178, Final residual = 9.35426e-05, No Iterations 16
[INFO] SolveP: 107.898 [ms]
time step continuity errors : sum local = 1.86641e-08, global = 3.65934e-21, cumulative = 1.07001e-20
[INFO] ContinuityError: 1.63 [ms]
[INFO] CorrectBoundary: 0.337 [ms]
[INFO] PISOStep: 121.221 [ms]
[INFO] TimeStep: 285.888 [ms]
ExecutionTime = 1.49 s  ClockTime = 2 s

Time = 0.0025

Courant Number mean: 0.0439268 max: 0.459625
[INFO] MatrixAssemblyU: 3.736 [ms]
DILUPBiCGStab:  Solving for Ux, Initial residual = 0.0235177, Final residual = 0.000127008, No Iterations 5
DILUPBiCGStab:  Solving for Uy, Initial residual = 0.0515589, Final residual = 0.000259225, No Iterations 5
DILUPBiCGStab:  Solving for Uz, Initial residual = 0.131326, Final residual = 0.000807703, No Iterations 5
[INFO] MomentumPredictor: 54.57 [ms]
[INFO] MatrixAssemblyPI: 5.649 [ms]
[INFO] AdjustPhi: 0.656 [ms]
[INFO] ConstrainPressure: 0.003 [ms]
[INFO] MatrixAssemblyPII: 1.789 [ms]
GAMG:  Solving for p, Initial residual = 0.316205, Final residual = 8.59973e-05, No Iterations 19
[INFO] SolveP: 118.029 [ms]
time step continuity errors : sum local = 1.40047e-08, global = -7.70105e-21, cumulative = 2.99905e-21
[INFO] ContinuityError: 1.129 [ms]
[INFO] CorrectBoundary: 0.059 [ms]
[INFO] PISOStep: 130.887 [ms]
[INFO] MatrixAssemblyPI: 6.864 [ms]
[INFO] AdjustPhi: 0.274 [ms]
[INFO] ConstrainPressure: 0.004 [ms]
[INFO] MatrixAssemblyPII: 2.125 [ms]
GAMG:  Solving for p, Initial residual = 0.270756, Final residual = 9.95911e-05, No Iterations 18
[INFO] SolveP: 110.422 [ms]
time step continuity errors : sum local = 1.60842e-08, global = -2.38704e-21, cumulative = 6.1201e-22
[INFO] ContinuityError: 1.098 [ms]
[INFO] CorrectBoundary: 0.051 [ms]
[INFO] PISOStep: 123.344 [ms]
[INFO] TimeStep: 313.617 [ms]
ExecutionTime = 1.8 s  ClockTime = 2 s

Time = 0.003

Courant Number mean: 0.0479667 max: 0.463865
[INFO] MatrixAssemblyU: 4.139 [ms]
DILUPBiCGStab:  Solving for Ux, Initial residual = 0.017901, Final residual = 9.39285e-05, No Iterations 5
DILUPBiCGStab:  Solving for Uy, Initial residual = 0.0401553, Final residual = 0.000138731, No Iterations 5
DILUPBiCGStab:  Solving for Uz, Initial residual = 0.110109, Final residual = 0.000636002, No Iterations 5
[INFO] MomentumPredictor: 53.428 [ms]
[INFO] MatrixAssemblyPI: 5.766 [ms]
[INFO] AdjustPhi: 0.387 [ms]
[INFO] ConstrainPressure: 0.003 [ms]
[INFO] MatrixAssemblyPII: 1.792 [ms]
GAMG:  Solving for p, Initial residual = 0.198188, Final residual = 8.81715e-05, No Iterations 16
[INFO] SolveP: 99.196 [ms]
time step continuity errors : sum local = 1.38352e-08, global = -2.40875e-21, cumulative = -1.79674e-21
[INFO] ContinuityError: 0.945 [ms]
[INFO] CorrectBoundary: 0.052 [ms]
[INFO] PISOStep: 110.683 [ms]
[INFO] MatrixAssemblyPI: 5.481 [ms]
[INFO] AdjustPhi: 0.441 [ms]
[INFO] ConstrainPressure: 0.002 [ms]
[INFO] MatrixAssemblyPII: 1.818 [ms]
GAMG:  Solving for p, Initial residual = 0.164904, Final residual = 8.10104e-05, No Iterations 16
[INFO] SolveP: 106.453 [ms]
time step continuity errors : sum local = 1.27726e-08, global = -7.23307e-21, cumulative = -9.02981e-21
[INFO] ContinuityError: 1.604 [ms]
[INFO] CorrectBoundary: 0.339 [ms]
[INFO] PISOStep: 119.373 [ms]
[INFO] TimeStep: 288.65 [ms]
ExecutionTime = 2.09 s  ClockTime = 2 s

Time = 0.0035

Courant Number mean: 0.0513758 max: 0.466738
[INFO] MatrixAssemblyU: 3.741 [ms]
DILUPBiCGStab:  Solving for Ux, Initial residual = 0.0146419, Final residual = 6.72193e-05, No Iterations 5
DILUPBiCGStab:  Solving for Uy, Initial residual = 0.0317848, Final residual = 0.000119695, No Iterations 5
DILUPBiCGStab:  Solving for Uz, Initial residual = 0.074251, Final residual = 0.000383914, No Iterations 5
[INFO] MomentumPredictor: 55.123 [ms]
[INFO] MatrixAssemblyPI: 5.652 [ms]
[INFO] AdjustPhi: 0.619 [ms]
[INFO] ConstrainPressure: 0.003 [ms]
[INFO] MatrixAssemblyPII: 1.771 [ms]
GAMG:  Solving for p, Initial residual = 0.140455, Final residual = 9.73898e-05, No Iterations 14
[INFO] SolveP: 86.008 [ms]
time step continuity errors : sum local = 1.45574e-08, global = -1.83644e-21, cumulative = -1.08663e-20
[INFO] ContinuityError: 0.951 [ms]
[INFO] CorrectBoundary: 0.052 [ms]
[INFO] PISOStep: 97.577 [ms]
[INFO] MatrixAssemblyPI: 5.684 [ms]
[INFO] AdjustPhi: 0.577 [ms]
[INFO] ConstrainPressure: 0.004 [ms]
[INFO] MatrixAssemblyPII: 1.755 [ms]
GAMG:  Solving for p, Initial residual = 0.11756, Final residual = 8.03169e-05, No Iterations 17
[INFO] SolveP: 105.539 [ms]
time step continuity errors : sum local = 1.19568e-08, global = 4.90684e-21, cumulative = -5.95942e-21
[INFO] ContinuityError: 1.323 [ms]
[INFO] CorrectBoundary: 0.534 [ms]
[INFO] PISOStep: 118.186 [ms]
[INFO] TimeStep: 275.733 [ms]
ExecutionTime = 2.37 s  ClockTime = 2 s

Time = 0.004

Courant Number mean: 0.054315 max: 0.468945
[INFO] MatrixAssemblyU: 4.168 [ms]
DILUPBiCGStab:  Solving for Ux, Initial residual = 0.0122884, Final residual = 5.12905e-05, No Iterations 5
DILUPBiCGStab:  Solving for Uy, Initial residual = 0.0265295, Final residual = 7.79592e-05, No Iterations 5
DILUPBiCGStab:  Solving for Uz, Initial residual = 0.0653985, Final residual = 0.000258556, No Iterations 5
[INFO] MomentumPredictor: 54.674 [ms]
[INFO] MatrixAssemblyPI: 5.765 [ms]
[INFO] AdjustPhi: 0.423 [ms]
[INFO] ConstrainPressure: 0.003 [ms]
[INFO] MatrixAssemblyPII: 1.801 [ms]
GAMG:  Solving for p, Initial residual = 0.0921191, Final residual = 8.98646e-05, No Iterations 15
[INFO] SolveP: 92.578 [ms]
time step continuity errors : sum local = 1.31119e-08, global = 2.44018e-21, cumulative = -3.51924e-21
[INFO] ContinuityError: 0.97 [ms]
[INFO] CorrectBoundary: 0.058 [ms]
[INFO] PISOStep: 104.158 [ms]
[INFO] MatrixAssemblyPI: 5.454 [ms]
[INFO] AdjustPhi: 0.405 [ms]
[INFO] ConstrainPressure: 0.002 [ms]
[INFO] MatrixAssemblyPII: 1.786 [ms]
GAMG:  Solving for p, Initial residual = 0.076371, Final residual = 8.57119e-05, No Iterations 15
[INFO] SolveP: 91.92 [ms]
time step continuity errors : sum local = 1.25566e-08, global = 1.22454e-21, cumulative = -2.2947e-21
[INFO] ContinuityError: 1.143 [ms]
[INFO] CorrectBoundary: 0.053 [ms]
[INFO] PISOStep: 103.367 [ms]
[INFO] TimeStep: 267.77 [ms]
ExecutionTime = 2.63 s  ClockTime = 3 s

Time = 0.0045

Courant Number mean: 0.0568925 max: 0.470648
[INFO] MatrixAssemblyU: 4.161 [ms]
DILUPBiCGStab:  Solving for Ux, Initial residual = 0.0105337, Final residual = 3.98017e-05, No Iterations 5
DILUPBiCGStab:  Solving for Uy, Initial residual = 0.0226881, Final residual = 6.79947e-05, No Iterations 5
DILUPBiCGStab:  Solving for Uz, Initial residual = 0.0548776, Final residual = 0.000195948, No Iterations 5
[INFO] MomentumPredictor: 54.651 [ms]
[INFO] MatrixAssemblyPI: 7.719 [ms]
[INFO] AdjustPhi: 0.284 [ms]
[INFO] ConstrainPressure: 0.005 [ms]
[INFO] MatrixAssemblyPII: 2.129 [ms]
GAMG:  Solving for p, Initial residual = 0.068123, Final residual = 8.31321e-05, No Iterations 15
[INFO] SolveP: 101.283 [ms]
time step continuity errors : sum local = 1.19393e-08, global = 1.49089e-21, cumulative = -8.03813e-22
[INFO] ContinuityError: 1.428 [ms]
[INFO] CorrectBoundary: 0.364 [ms]
[INFO] PISOStep: 116.019 [ms]
[INFO] MatrixAssemblyPI: 6.199 [ms]
[INFO] AdjustPhi: 1.124 [ms]
[INFO] ConstrainPressure: 0.003 [ms]
[INFO] MatrixAssemblyPII: 1.69 [ms]
GAMG:  Solving for p, Initial residual = 0.0570173, Final residual = 9.70707e-05, No Iterations 15
[INFO] SolveP: 90.938 [ms]
time step continuity errors : sum local = 1.39633e-08, global = -2.30546e-21, cumulative = -3.10927e-21
[INFO] ContinuityError: 1.19 [ms]
[INFO] CorrectBoundary: 0.057 [ms]
[INFO] PISOStep: 104.171 [ms]
[INFO] TimeStep: 280.049 [ms]
ExecutionTime = 2.91 s  ClockTime = 3 s

Time = 0.005

Courant Number mean: 0.0591882 max: 0.472043
[INFO] MatrixAssemblyU: 4.039 [ms]
DILUPBiCGStab:  Solving for Ux, Initial residual = 0.00922208, Final residual = 3.32115e-05, No Iterations 5
DILUPBiCGStab:  Solving for Uy, Initial residual = 0.0197372, Final residual = 5.12521e-05, No Iterations 5
DILUPBiCGStab:  Solving for Uz, Initial residual = 0.0501416, Final residual = 0.000159406, No Iterations 5
[INFO] MomentumPredictor: 54.41 [ms]
[INFO] MatrixAssemblyPI: 5.731 [ms]
[INFO] AdjustPhi: 0.412 [ms]
[INFO] ConstrainPressure: 0.003 [ms]
[INFO] MatrixAssemblyPII: 1.798 [ms]
GAMG:  Solving for p, Initial residual = 0.046486, Final residual = 8.24913e-05, No Iterations 16
[INFO] SolveP: 98.202 [ms]
time step continuity errors : sum local = 1.17419e-08, global = 1.13299e-20, cumulative = 8.22062e-21
[INFO] ContinuityError: 1.27 [ms]
[INFO] CorrectBoundary: 0.055 [ms]
[INFO] PISOStep: 109.985 [ms]
[INFO] MatrixAssemblyPI: 5.802 [ms]
[INFO] AdjustPhi: 1.772 [ms]
[INFO] ConstrainPressure: 0.004 [ms]
[INFO] MatrixAssemblyPII: 1.8 [ms]
GAMG:  Solving for p, Initial residual = 0.0394401, Final residual = 9.76246e-05, No Iterations 15
[INFO] SolveP: 92.079 [ms]
time step continuity errors : sum local = 1.39469e-08, global = -7.5198e-21, cumulative = 7.00829e-22
[INFO] ContinuityError: 1.153 [ms]
[INFO] CorrectBoundary: 0.05 [ms]
[INFO] PISOStep: 105.261 [ms]
[INFO] TimeStep: 274.733 [ms]
ExecutionTime = 3.18 s  ClockTime = 3 s

Time = 0.0055

Courant Number mean: 0.0612482 max: 0.473193
[INFO] MatrixAssemblyU: 4.152 [ms]
DILUPBiCGStab:  Solving for Ux, Initial residual = 0.00814117, Final residual = 2.75996e-05, No Iterations 5
DILUPBiCGStab:  Solving for Uy, Initial residual = 0.0174591, Final residual = 4.55954e-05, No Iterations 5
DILUPBiCGStab:  Solving for Uz, Initial residual = 0.0445857, Final residual = 0.00013598, No Iterations 5
[INFO] MomentumPredictor: 55.848 [ms]
[INFO] MatrixAssemblyPI: 5.771 [ms]
[INFO] AdjustPhi: 2.414 [ms]
[INFO] ConstrainPressure: 0.004 [ms]
[INFO] MatrixAssemblyPII: 1.832 [ms]
GAMG:  Solving for p, Initial residual = 0.0368213, Final residual = 8.56672e-05, No Iterations 16
[INFO] SolveP: 97.807 [ms]
time step continuity errors : sum local = 1.21447e-08, global = 5.85623e-21, cumulative = 6.55706e-21
[INFO] ContinuityError: 0.957 [ms]
[INFO] CorrectBoundary: 0.055 [ms]
[INFO] PISOStep: 111.567 [ms]
[INFO] MatrixAssemblyPI: 5.472 [ms]
[INFO] AdjustPhi: 0.412 [ms]
[INFO] ConstrainPressure: 0.002 [ms]
[INFO] MatrixAssemblyPII: 1.794 [ms]
GAMG:  Solving for p, Initial residual = 0.031465, Final residual = 9.19409e-05, No Iterations 16
[INFO] SolveP: 98.514 [ms]
time step continuity errors : sum local = 1.30278e-08, global = -3.30148e-21, cumulative = 3.25558e-21
[INFO] ContinuityError: 0.931 [ms]
[INFO] CorrectBoundary: 0.044 [ms]
[INFO] PISOStep: 109.805 [ms]
[INFO] TimeStep: 282.42 [ms]
ExecutionTime = 3.47 s  ClockTime = 4 s

Time = 0.006

Courant Number mean: 0.0631202 max: 0.47417
[INFO] MatrixAssemblyU: 4.125 [ms]
DILUPBiCGStab:  Solving for Ux, Initial residual = 0.00729022, Final residual = 2.40842e-05, No Iterations 5
DILUPBiCGStab:  Solving for Uy, Initial residual = 0.0155838, Final residual = 3.92254e-05, No Iterations 5
DILUPBiCGStab:  Solving for Uz, Initial residual = 0.0408337, Final residual = 0.000118911, No Iterations 5
[INFO] MomentumPredictor: 52.532 [ms]
[INFO] MatrixAssemblyPI: 5.798 [ms]
[INFO] AdjustPhi: 0.378 [ms]
[INFO] ConstrainPressure: 0.004 [ms]
[INFO] MatrixAssemblyPII: 1.811 [ms]
GAMG:  Solving for p, Initial residual = 0.0273326, Final residual = 8.56278e-05, No Iterations 15
[INFO] SolveP: 92.951 [ms]
time step continuity errors : sum local = 1.21326e-08, global = 6.46069e-21, cumulative = 9.71627e-21
[INFO] ContinuityError: 0.937 [ms]
[INFO] CorrectBoundary: 0.05 [ms]
[INFO] PISOStep: 104.447 [ms]
[INFO] MatrixAssemblyPI: 5.466 [ms]
[INFO] AdjustPhi: 0.377 [ms]
[INFO] ConstrainPressure: 0.003 [ms]
[INFO] MatrixAssemblyPII: 1.783 [ms]
GAMG:  Solving for p, Initial residual = 0.0240088, Final residual = 8.46832e-05, No Iterations 15
[INFO] SolveP: 101.376 [ms]
time step continuity errors : sum local = 1.20051e-08, global = -1.66832e-21, cumulative = 8.04795e-21
[INFO] ContinuityError: 1.4 [ms]
[INFO] CorrectBoundary: 0.345 [ms]
[INFO] PISOStep: 114.031 [ms]
[INFO] TimeStep: 276.131 [ms]
ExecutionTime = 3.75 s  ClockTime = 4 s

Time = 0.0065

Courant Number mean: 0.0648244 max: 0.475007
[INFO] MatrixAssemblyU: 3.758 [ms]
DILUPBiCGStab:  Solving for Ux, Initial residual = 0.00656055, Final residual = 2.093e-05, No Iterations 5
DILUPBiCGStab:  Solving for Uy, Initial residual = 0.0140591, Final residual = 3.52674e-05, No Iterations 5
DILUPBiCGStab:  Solving for Uz, Initial residual = 0.0360956, Final residual = 0.000102964, No Iterations 5
[INFO] MomentumPredictor: 55.795 [ms]
[INFO] MatrixAssemblyPI: 5.715 [ms]
[INFO] AdjustPhi: 0.618 [ms]
[INFO] ConstrainPressure: 0.003 [ms]
[INFO] MatrixAssemblyPII: 1.78 [ms]
GAMG:  Solving for p, Initial residual = 0.0225905, Final residual = 8.46317e-05, No Iterations 15
[INFO] SolveP: 92.596 [ms]
time step continuity errors : sum local = 1.19622e-08, global = -7.04965e-22, cumulative = 7.34299e-21
[INFO] ContinuityError: 0.952 [ms]
[INFO] CorrectBoundary: 0.063 [ms]
[INFO] PISOStep: 104.27 [ms]
[INFO] MatrixAssemblyPI: 5.454 [ms]
[INFO] AdjustPhi: 0.398 [ms]
[INFO] ConstrainPressure: 0.003 [ms]
[INFO] MatrixAssemblyPII: 1.794 [ms]
GAMG:  Solving for p, Initial residual = 0.0200011, Final residual = 7.91147e-05, No Iterations 15
[INFO] SolveP: 94.069 [ms]
time step continuity errors : sum local = 1.11857e-08, global = 6.72312e-21, cumulative = 1.40661e-20
[INFO] ContinuityError: 0.861 [ms]
[INFO] CorrectBoundary: 0.06 [ms]
[INFO] PISOStep: 106.479 [ms]
[INFO] TimeStep: 271.437 [ms]
ExecutionTime = 4.01 s  ClockTime = 4 s

Time = 0.007

Courant Number mean: 0.0663922 max: 0.475736
[INFO] MatrixAssemblyU: 5.321 [ms]
DILUPBiCGStab:  Solving for Ux, Initial residual = 0.00596286, Final residual = 1.86716e-05, No Iterations 5
DILUPBiCGStab:  Solving for Uy, Initial residual = 0.0127625, Final residual = 3.16892e-05, No Iterations 5
DILUPBiCGStab:  Solving for Uz, Initial residual = 0.0331004, Final residual = 9.06951e-05, No Iterations 5
[INFO] MomentumPredictor: 53.973 [ms]
[INFO] MatrixAssemblyPI: 5.875 [ms]
[INFO] AdjustPhi: 2.024 [ms]
[INFO] ConstrainPressure: 0.005 [ms]
[INFO] MatrixAssemblyPII: 1.798 [ms]
GAMG:  Solving for p, Initial residual = 0.0183317, Final residual = 8.28912e-05, No Iterations 15
[INFO] SolveP: 93.151 [ms]
time step continuity errors : sum local = 1.17035e-08, global = 6.63812e-22, cumulative = 1.47299e-20
[INFO] ContinuityError: 0.956 [ms]
[INFO] CorrectBoundary: 0.046 [ms]
[INFO] PISOStep: 106.427 [ms]
[INFO] MatrixAssemblyPI: 5.405 [ms]
[INFO] AdjustPhi: 0.468 [ms]
[INFO] ConstrainPressure: 0.003 [ms]
[INFO] MatrixAssemblyPII: 1.792 [ms]
GAMG:  Solving for p, Initial residual = 0.0166275, Final residual = 9.40915e-05, No Iterations 14
[INFO] SolveP: 85.667 [ms]
time step continuity errors : sum local = 1.32511e-08, global = -4.98924e-21, cumulative = 9.74067e-21
[INFO] ContinuityError: 0.947 [ms]
[INFO] CorrectBoundary: 0.048 [ms]
[INFO] PISOStep: 96.904 [ms]
[INFO] TimeStep: 263.63 [ms]
ExecutionTime = 4.28 s  ClockTime = 4 s

Time = 0.0075

Courant Number mean: 0.0678394 max: 0.476377
[INFO] MatrixAssemblyU: 4.203 [ms]
DILUPBiCGStab:  Solving for Ux, Initial residual = 0.0054383, Final residual = 1.6662e-05, No Iterations 5
DILUPBiCGStab:  Solving for Uy, Initial residual = 0.011668, Final residual = 2.88079e-05, No Iterations 5
DILUPBiCGStab:  Solving for Uz, Initial residual = 0.031221, Final residual = 8.57644e-05, No Iterations 5
[INFO] MomentumPredictor: 54.231 [ms]
[INFO] MatrixAssemblyPI: 5.769 [ms]
[INFO] AdjustPhi: 0.401 [ms]
[INFO] ConstrainPressure: 0.004 [ms]
[INFO] MatrixAssemblyPII: 1.763 [ms]
GAMG:  Solving for p, Initial residual = 0.0164242, Final residual = 8.56844e-05, No Iterations 15
[INFO] SolveP: 90.965 [ms]
time step continuity errors : sum local = 1.20903e-08, global = 6.81069e-21, cumulative = 1.65514e-20
[INFO] ContinuityError: 0.966 [ms]
[INFO] CorrectBoundary: 0.071 [ms]
[INFO] PISOStep: 102.511 [ms]
[INFO] MatrixAssemblyPI: 5.434 [ms]
[INFO] AdjustPhi: 0.392 [ms]
[INFO] ConstrainPressure: 0.002 [ms]
[INFO] MatrixAssemblyPII: 1.784 [ms]
GAMG:  Solving for p, Initial residual = 0.0150252, Final residual = 9.26285e-05, No Iterations 13
[INFO] SolveP: 78.628 [ms]
time step continuity errors : sum local = 1.30618e-08, global = 2.74107e-22, cumulative = 1.68255e-20
[INFO] ContinuityError: 1.101 [ms]
[INFO] CorrectBoundary: 0.051 [ms]
[INFO] PISOStep: 90.001 [ms]
[INFO] TimeStep: 251.99 [ms]
ExecutionTime = 4.53 s  ClockTime = 5 s

Time = 0.008

Courant Number mean: 0.0691768 max: 0.476948
[INFO] MatrixAssemblyU: 4.122 [ms]
DILUPBiCGStab:  Solving for Ux, Initial residual = 0.00499487, Final residual = 1.50682e-05, No Iterations 5
DILUPBiCGStab:  Solving for Uy, Initial residual = 0.0107179, Final residual = 2.63771e-05, No Iterations 5
DILUPBiCGStab:  Solving for Uz, Initial residual = 0.0294747, Final residual = 8.24929e-05, No Iterations 5
[INFO] MomentumPredictor: 53.172 [ms]
[INFO] MatrixAssemblyPI: 5.797 [ms]
[INFO] AdjustPhi: 0.385 [ms]
[INFO] ConstrainPressure: 0.004 [ms]
[INFO] MatrixAssemblyPII: 1.772 [ms]
GAMG:  Solving for p, Initial residual = 0.0146414, Final residual = 9.20126e-05, No Iterations 16
[INFO] SolveP: 98.778 [ms]
time step continuity errors : sum local = 1.29907e-08, global = -1.65188e-21, cumulative = 1.51736e-20
[INFO] ContinuityError: 0.994 [ms]
[INFO] CorrectBoundary: 0.073 [ms]
[INFO] PISOStep: 110.396 [ms]
[INFO] MatrixAssemblyPI: 5.674 [ms]
[INFO] AdjustPhi: 0.286 [ms]
[INFO] ConstrainPressure: 0.004 [ms]
[INFO] MatrixAssemblyPII: 1.854 [ms]
GAMG:  Solving for p, Initial residual = 0.0135706, Final residual = 8.61135e-05, No Iterations 16
[INFO] SolveP: 96.799 [ms]
time step continuity errors : sum local = 1.21356e-08, global = -4.30227e-21, cumulative = 1.08713e-20
[INFO] ContinuityError: 1.149 [ms]
[INFO] CorrectBoundary: 0.056 [ms]
[INFO] PISOStep: 108.485 [ms]
[INFO] TimeStep: 277.181 [ms]
ExecutionTime = 4.8 s  ClockTime = 5 s

Time = 0.0085

Courant Number mean: 0.0704224 max: 0.477456
[INFO] MatrixAssemblyU: 4.098 [ms]
DILUPBiCGStab:  Solving for Ux, Initial residual = 0.00460025, Final residual = 1.36682e-05, No Iterations 5
DILUPBiCGStab:  Solving for Uy, Initial residual = 0.00989442, Final residual = 2.42548e-05, No Iterations 5
DILUPBiCGStab:  Solving for Uz, Initial residual = 0.0274723, Final residual = 7.72157e-05, No Iterations 5
[INFO] MomentumPredictor: 54.263 [ms]
[INFO] MatrixAssemblyPI: 5.771 [ms]
[INFO] AdjustPhi: 0.607 [ms]
[INFO] ConstrainPressure: 0.003 [ms]
[INFO] MatrixAssemblyPII: 1.792 [ms]
GAMG:  Solving for p, Initial residual = 0.0133313, Final residual = 8.14184e-05, No Iterations 15
[INFO] SolveP: 98.162 [ms]
time step continuity errors : sum local = 1.14907e-08, global = -3.18537e-21, cumulative = 7.68596e-21
[INFO] ContinuityError: 1.446 [ms]
[INFO] CorrectBoundary: 0.337 [ms]
[INFO] PISOStep: 111.244 [ms]
[INFO] MatrixAssemblyPI: 6.256 [ms]
[INFO] AdjustPhi: 2.13 [ms]
[INFO] ConstrainPressure: 0.003 [ms]
[INFO] MatrixAssemblyPII: 1.677 [ms]
GAMG:  Solving for p, Initial residual = 0.0124262, Final residual = 8.35252e-05, No Iterations 13
[INFO] SolveP: 81.63 [ms]
time step continuity errors : sum local = 1.17502e-08, global = 3.9411e-21, cumulative = 1.16271e-20
[INFO] ContinuityError: 1.155 [ms]
[INFO] CorrectBoundary: 0.096 [ms]
[INFO] PISOStep: 96.104 [ms]
[INFO] TimeStep: 266.755 [ms]
ExecutionTime = 5.07 s  ClockTime = 5 s

Time = 0.009

Courant Number mean: 0.0715858 max: 0.477914
[INFO] MatrixAssemblyU: 4.032 [ms]
DILUPBiCGStab:  Solving for Ux, Initial residual = 0.0042592, Final residual = 1.24765e-05, No Iterations 5
DILUPBiCGStab:  Solving for Uy, Initial residual = 0.00916648, Final residual = 2.2434e-05, No Iterations 5
DILUPBiCGStab:  Solving for Uz, Initial residual = 0.0254664, Final residual = 7.19985e-05, No Iterations 5
[INFO] MomentumPredictor: 54.023 [ms]
[INFO] MatrixAssemblyPI: 5.757 [ms]
[INFO] AdjustPhi: 0.48 [ms]
[INFO] ConstrainPressure: 0.005 [ms]
[INFO] MatrixAssemblyPII: 1.793 [ms]
GAMG:  Solving for p, Initial residual = 0.0122426, Final residual = 8.36286e-05, No Iterations 14
[INFO] SolveP: 86.221 [ms]
time step continuity errors : sum local = 1.17617e-08, global = 9.26959e-22, cumulative = 1.2554e-20
[INFO] ContinuityError: 0.951 [ms]
[INFO] CorrectBoundary: 0.056 [ms]
[INFO] PISOStep: 97.804 [ms]
[INFO] MatrixAssemblyPI: 5.477 [ms]
[INFO] AdjustPhi: 0.373 [ms]
[INFO] ConstrainPressure: 0.003 [ms]
[INFO] MatrixAssemblyPII: 1.762 [ms]
GAMG:  Solving for p, Initial residual = 0.0114625, Final residual = 8.75205e-05, No Iterations 14
[INFO] SolveP: 86.172 [ms]
time step continuity errors : sum local = 1.23101e-08, global = 4.30134e-23, cumulative = 1.2597e-20
[INFO] ContinuityError: 1.111 [ms]
[INFO] CorrectBoundary: 0.095 [ms]
[INFO] PISOStep: 97.551 [ms]
[INFO] TimeStep: 254.502 [ms]
ExecutionTime = 5.32 s  ClockTime = 5 s

Time = 0.0095

Courant Number mean: 0.0726729 max: 0.478327
[INFO] MatrixAssemblyU: 4.124 [ms]
DILUPBiCGStab:  Solving for Ux, Initial residual = 0.00395177, Final residual = 1.14473e-05, No Iterations 5
DILUPBiCGStab:  Solving for Uy, Initial residual = 0.00852397, Final residual = 2.08231e-05, No Iterations 5
DILUPBiCGStab:  Solving for Uz, Initial residual = 0.0240027, Final residual = 6.72917e-05, No Iterations 5
[INFO] MomentumPredictor: 54.431 [ms]
[INFO] MatrixAssemblyPI: 5.738 [ms]
[INFO] AdjustPhi: 0.414 [ms]
[INFO] ConstrainPressure: 0.003 [ms]
[INFO] MatrixAssemblyPII: 1.797 [ms]
GAMG:  Solving for p, Initial residual = 0.0114783, Final residual = 8.73156e-05, No Iterations 13
[INFO] SolveP: 80.75 [ms]
time step continuity errors : sum local = 1.22913e-08, global = 7.58452e-21, cumulative = 2.01816e-20
[INFO] ContinuityError: 1.103 [ms]
[INFO] CorrectBoundary: 0.057 [ms]
[INFO] PISOStep: 92.383 [ms]
[INFO] MatrixAssemblyPI: 5.433 [ms]
[INFO] AdjustPhi: 0.407 [ms]
[INFO] ConstrainPressure: 0.003 [ms]
[INFO] MatrixAssemblyPII: 1.765 [ms]
GAMG:  Solving for p, Initial residual = 0.0107864, Final residual = 9.29605e-05, No Iterations 15
[INFO] SolveP: 91.811 [ms]
time step continuity errors : sum local = 1.31245e-08, global = 1.65974e-21, cumulative = 2.18413e-20
[INFO] ContinuityError: 0.971 [ms]
[INFO] CorrectBoundary: 0.06 [ms]
[INFO] PISOStep: 103.278 [ms]
[INFO] TimeStep: 255.245 [ms]
ExecutionTime = 5.58 s  ClockTime = 6 s

Time = 0.01

Courant Number mean: 0.0736904 max: 0.478704
[INFO] MatrixAssemblyU: 4.12 [ms]
DILUPBiCGStab:  Solving for Ux, Initial residual = 0.00368155, Final residual = 1.05283e-05, No Iterations 5
DILUPBiCGStab:  Solving for Uy, Initial residual = 0.00794904, Final residual = 1.94082e-05, No Iterations 5
DILUPBiCGStab:  Solving for Uz, Initial residual = 0.0232028, Final residual = 6.63697e-05, No Iterations 5
[INFO] MomentumPredictor: 53.151 [ms]
[INFO] MatrixAssemblyPI: 5.8 [ms]
[INFO] AdjustPhi: 0.43 [ms]
[INFO] ConstrainPressure: 0.003 [ms]
[INFO] MatrixAssemblyPII: 1.814 [ms]
GAMG:  Solving for p, Initial residual = 0.0112128, Final residual = 9.33917e-05, No Iterations 14
[INFO] SolveP: 87.664 [ms]
time step continuity errors : sum local = 1.31509e-08, global = 8.8984e-22, cumulative = 2.27311e-20
[INFO] ContinuityError: 0.995 [ms]
[INFO] CorrectBoundary: 0.061 [ms]
[INFO] PISOStep: 100.43 [ms]
[INFO] MatrixAssemblyPI: 6.707 [ms]
[INFO] AdjustPhi: 0.268 [ms]
[INFO] ConstrainPressure: 0.003 [ms]
[INFO] MatrixAssemblyPII: 2.007 [ms]
GAMG:  Solving for p, Initial residual = 0.0105394, Final residual = 8.11485e-05, No Iterations 16
[INFO] SolveP: 98.972 [ms]
time step continuity errors : sum local = 1.14682e-08, global = -7.64191e-21, cumulative = 1.50892e-20
[INFO] ContinuityError: 1.142 [ms]
[INFO] CorrectBoundary: 0.07 [ms]
[INFO] PISOStep: 111.571 [ms]
[INFO] TimeStep: 270.343 [ms]
ExecutionTime = 5.84 s  ClockTime = 6 s

End

Finalising parallel run
