/*---------------------------------------------------------------------------*\
| =========                 |                                                 |
| \\      /  F ield         | OpenFOAM: The Open Source CFD Toolbox           |
|  \\    /   O peration     | Version:  2306                                  |
|   \\  /    A nd           | Website:  www.openfoam.com                      |
|    \\/     M anipulation  |                                                 |
\*---------------------------------------------------------------------------*/
Build  : c423ebec-20231012 OPENFOAM=2306 version=v2306
Arch   : "LSB;label=32;scalar=64"
Exec   : decomposePar -force
Date   : Feb 04 2024
Time   : 20:38:41
Host   : hkn1139.localdomain
PID    : 174719
--> FOAM Warning : 
    From Foam::fileName Foam::cwd_L()
    in file POSIX.C at line 552
    PWD is not the cwd() - reverting to physical description
I/O    : uncollated
--> FOAM Warning : 
    From Foam::fileName Foam::cwd_L()
    in file POSIX.C at line 552
    PWD is not the cwd() - reverting to physical description
Case   : /hkfs/work/workspace/scratch/eq4036-l3d_multi/workspace/3b97ba34a1e234e2724bb131dd76bec2/case
nProcs : 1
trapFpe: Floating point exception trapping enabled (FOAM_SIGFPE).
fileModificationChecking : Monitoring run-time modified files using timeStampMaster (fileModificationSkew 5, maxFileModificationPolls 20)
allowSystemOperations : Allowing user-supplied system call operations

// * * * * * * * * * * * * * * * * * * * * * * * * * * * * * * * * * * * * * //
Create time

--> FOAM Warning : 
    From void* Foam::dlLibraryTable::openLibrary(const Foam::fileName&, bool)
    in file db/dynamicLibrary/dlLibraryTable/dlLibraryTable.C at line 188
    Could not load "libpetscFoam.so"
libpetscFoam.so: cannot open shared object file: No such file or directory


Decomposing mesh

Create mesh

Calculating distribution of cells
Decomposition method simple [152] (region region0)

Finished decomposition in 49.63 s

Calculating original mesh data

Distributing cells to processors

Distributing faces to processors

Distributing points to processors

Constructing processor meshes

Processor 0
    Number of cells = 420000
    Number of points = 446622
    Number of faces shared with processor 1 = 4200
    Number of faces shared with processor 4 = 2100
    Number of faces shared with processor 8 = 20000
    Number of processor patches = 3
    Number of processor faces = 26300
    Number of boundary faces = 26300

Processor 1
    Number of cells = 420000
    Number of points = 446622
    Number of faces shared with processor 0 = 4200
    Number of faces shared with processor 2 = 4200
    Number of faces shared with processor 5 = 2100
    Number of faces shared with processor 9 = 20000
    Number of processor patches = 4
    Number of processor faces = 30500
    Number of boundary faces = 22100

Processor 2
    Number of cells = 420000
    Number of points = 446622
    Number of faces shared with processor 1 = 4200
    Number of faces shared with processor 3 = 4200
    Number of faces shared with processor 6 = 2100
    Number of faces shared with processor 10 = 20000
    Number of processor patches = 4
    Number of processor faces = 30500
    Number of boundary faces = 22100

Processor 3
    Number of cells = 419936
    Number of points = 446558
    Number of faces shared with processor 2 = 4200
    Number of faces shared with processor 7 = 2100
    Number of faces shared with processor 11 = 20023
    Number of processor patches = 3
    Number of processor faces = 26323
    Number of boundary faces = 26277

Processor 4
    Number of cells = 426722
    Number of points = 453537
    Number of faces shared with processor 0 = 2100
    Number of faces shared with processor 5 = 4242
    Number of faces shared with processor 12 = 20150
    Number of processor patches = 3
    Number of processor faces = 26492
    Number of boundary faces = 26492

Processor 5
    Number of cells = 421764
    Number of points = 448512
    Number of faces shared with processor 1 = 2100
    Number of faces shared with processor 4 = 4242
    Number of faces shared with processor 6 = 4200
    Number of faces shared with processor 13 = 20125
    Number of processor patches = 4
    Number of processor faces = 30667
    Number of boundary faces = 22183

Processor 6
    Number of cells = 420000
    Number of points = 446622
    Number of faces shared with processor 2 = 2100
    Number of faces shared with processor 5 = 4200
    Number of faces shared with processor 7 = 4200
    Number of faces shared with processor 14 = 20000
    Number of processor patches = 4
    Number of processor faces = 30500
    Number of boundary faces = 22100

Processor 7
    Number of cells = 420000
    Number of points = 446622
    Number of faces shared with processor 3 = 2100
    Number of faces shared with processor 6 = 4200
    Number of faces shared with processor 15 = 20000
    Number of processor patches = 3
    Number of processor faces = 26300
    Number of boundary faces = 26300

Processor 8
    Number of cells = 420000
    Number of points = 446622
    Number of faces shared with processor 0 = 20000
    Number of faces shared with processor 9 = 4200
    Number of faces shared with processor 12 = 2100
    Number of faces shared with processor 16 = 20000
    Number of processor patches = 4
    Number of processor faces = 46300
    Number of boundary faces = 6300

Processor 9
    Number of cells = 420000
    Number of points = 446622
    Number of faces shared with processor 1 = 20000
    Number of faces shared with processor 8 = 4200
    Number of faces shared with processor 10 = 4200
    Number of faces shared with processor 13 = 2100
    Number of faces shared with processor 17 = 20000
    Number of processor patches = 5
    Number of processor faces = 50500
    Number of boundary faces = 2100

Processor 10
    Number of cells = 420000
    Number of points = 446622
    Number of faces shared with processor 2 = 20000
    Number of faces shared with processor 9 = 4200
    Number of faces shared with processor 11 = 4200
    Number of faces shared with processor 14 = 2100
    Number of faces shared with processor 18 = 20000
    Number of processor patches = 5
    Number of processor faces = 50500
    Number of boundary faces = 2100

Processor 11
    Number of cells = 420064
    Number of points = 446710
    Number of faces shared with processor 3 = 20023
    Number of faces shared with processor 10 = 4200
    Number of faces shared with processor 15 = 2100
    Number of faces shared with processor 19 = 20000
    Number of processor patches = 4
    Number of processor faces = 46323
    Number of boundary faces = 6323

Processor 12
    Number of cells = 423778
    Number of points = 450589
    Number of faces shared with processor 4 = 20150
    Number of faces shared with processor 8 = 2100
    Number of faces shared with processor 13 = 4238
    Number of faces shared with processor 20 = 20150
    Number of processor patches = 4
    Number of processor faces = 46638
    Number of boundary faces = 6338

Processor 13
    Number of cells = 423709
    Number of points = 450512
    Number of faces shared with processor 5 = 20125
    Number of faces shared with processor 9 = 2100
    Number of faces shared with processor 12 = 4238
    Number of faces shared with processor 14 = 4229
    Number of faces shared with processor 21 = 20150
    Number of faces shared with processor 22 = 1
    Number of processor patches = 6
    Number of processor faces = 50843
    Number of boundary faces = 2117

Processor 14
    Number of cells = 420870
    Number of points = 447580
    Number of faces shared with processor 6 = 20000
    Number of faces shared with processor 10 = 2100
    Number of faces shared with processor 13 = 4229
    Number of faces shared with processor 15 = 4200
    Number of faces shared with processor 22 = 20087
    Number of processor patches = 5
    Number of processor faces = 50616
    Number of boundary faces = 2158

Processor 15
    Number of cells = 420000
    Number of points = 446622
    Number of faces shared with processor 7 = 20000
    Number of faces shared with processor 11 = 2100
    Number of faces shared with processor 14 = 4200
    Number of faces shared with processor 23 = 20000
    Number of processor patches = 4
    Number of processor faces = 46300
    Number of boundary faces = 6300

Processor 16
    Number of cells = 420000
    Number of points = 446622
    Number of faces shared with processor 8 = 20000
    Number of faces shared with processor 17 = 4200
    Number of faces shared with processor 20 = 2100
    Number of faces shared with processor 24 = 20000
    Number of processor patches = 4
    Number of processor faces = 46300
    Number of boundary faces = 6300

Processor 17
    Number of cells = 420000
    Number of points = 446622
    Number of faces shared with processor 9 = 20000
    Number of faces shared with processor 16 = 4200
    Number of faces shared with processor 18 = 4200
    Number of faces shared with processor 21 = 2100
    Number of faces shared with processor 25 = 20000
    Number of processor patches = 5
    Number of processor faces = 50500
    Number of boundary faces = 2100

Processor 18
    Number of cells = 420000
    Number of points = 446622
    Number of faces shared with processor 10 = 20000
    Number of faces shared with processor 17 = 4200
    Number of faces shared with processor 19 = 4200
    Number of faces shared with processor 22 = 2100
    Number of faces shared with processor 26 = 20000
    Number of processor patches = 5
    Number of processor faces = 50500
    Number of boundary faces = 2100

Processor 19
    Number of cells = 420000
    Number of points = 446622
    Number of faces shared with processor 11 = 20000
    Number of faces shared with processor 18 = 4200
    Number of faces shared with processor 23 = 2100
    Number of faces shared with processor 27 = 20000
    Number of processor patches = 4
    Number of processor faces = 46300
    Number of boundary faces = 6300

Processor 20
    Number of cells = 422900
    Number of points = 449702
    Number of faces shared with processor 12 = 20150
    Number of faces shared with processor 16 = 2100
    Number of faces shared with processor 21 = 4229
    Number of faces shared with processor 28 = 20150
    Number of processor patches = 4
    Number of processor faces = 46629
    Number of boundary faces = 6329

Processor 21
    Number of cells = 422927
    Number of points = 449729
    Number of faces shared with processor 13 = 20150
    Number of faces shared with processor 17 = 2100
    Number of faces shared with processor 20 = 4229
    Number of faces shared with processor 22 = 4229
    Number of faces shared with processor 29 = 20150
    Number of processor patches = 5
    Number of processor faces = 50858
    Number of boundary faces = 2100

Processor 22
    Number of cells = 422522
    Number of points = 449304
    Number of faces shared with processor 13 = 1
    Number of faces shared with processor 14 = 20087
    Number of faces shared with processor 18 = 2100
    Number of faces shared with processor 21 = 4229
    Number of faces shared with processor 23 = 4208
    Number of faces shared with processor 30 = 20150
    Number of faces shared with processor 31 = 1
    Number of processor patches = 7
    Number of processor faces = 50776
    Number of boundary faces = 2142

Processor 23
    Number of cells = 420072
    Number of points = 446719
    Number of faces shared with processor 15 = 20000
    Number of faces shared with processor 19 = 2100
    Number of faces shared with processor 22 = 4208
    Number of faces shared with processor 31 = 20024
    Number of processor patches = 4
    Number of processor faces = 46332
    Number of boundary faces = 6316

Processor 24
    Number of cells = 420000
    Number of points = 446622
    Number of faces shared with processor 16 = 20000
    Number of faces shared with processor 25 = 4200
    Number of faces shared with processor 28 = 2100
    Number of faces shared with processor 32 = 20000
    Number of processor patches = 4
    Number of processor faces = 46300
    Number of boundary faces = 6300

Processor 25
    Number of cells = 420000
    Number of points = 446622
    Number of faces shared with processor 17 = 20000
    Number of faces shared with processor 24 = 4200
    Number of faces shared with processor 26 = 4200
    Number of faces shared with processor 29 = 2100
    Number of faces shared with processor 33 = 20000
    Number of processor patches = 5
    Number of processor faces = 50500
    Number of boundary faces = 2100

Processor 26
    Number of cells = 420000
    Number of points = 446622
    Number of faces shared with processor 18 = 20000
    Number of faces shared with processor 25 = 4200
    Number of faces shared with processor 27 = 4200
    Number of faces shared with processor 30 = 2100
    Number of faces shared with processor 34 = 20000
    Number of processor patches = 5
    Number of processor faces = 50500
    Number of boundary faces = 2100

Processor 27
    Number of cells = 420000
    Number of points = 446622
    Number of faces shared with processor 19 = 20000
    Number of faces shared with processor 26 = 4200
    Number of faces shared with processor 31 = 2100
    Number of faces shared with processor 35 = 20000
    Number of processor patches = 4
    Number of processor faces = 46300
    Number of boundary faces = 6300

Processor 28
    Number of cells = 422463
    Number of points = 449261
    Number of faces shared with processor 20 = 20150
    Number of faces shared with processor 24 = 2100
    Number of faces shared with processor 29 = 4224
    Number of faces shared with processor 36 = 20150
    Number of faces shared with processor 37 = 1
    Number of processor patches = 5
    Number of processor faces = 46625
    Number of boundary faces = 6325

Processor 29
    Number of cells = 422450
    Number of points = 449247
    Number of faces shared with processor 21 = 20150
    Number of faces shared with processor 25 = 2100
    Number of faces shared with processor 28 = 4224
    Number of faces shared with processor 30 = 4224
    Number of faces shared with processor 37 = 20149
    Number of faces shared with processor 38 = 1
    Number of processor patches = 6
    Number of processor faces = 50848
    Number of boundary faces = 2100

Processor 30
    Number of cells = 422458
    Number of points = 449255
    Number of faces shared with processor 22 = 20150
    Number of faces shared with processor 26 = 2100
    Number of faces shared with processor 29 = 4224
    Number of faces shared with processor 31 = 4224
    Number of faces shared with processor 38 = 20149
    Number of faces shared with processor 39 = 1
    Number of processor patches = 6
    Number of processor faces = 50848
    Number of boundary faces = 2100

Processor 31
    Number of cells = 421050
    Number of points = 447772
    Number of faces shared with processor 22 = 1
    Number of faces shared with processor 23 = 20024
    Number of faces shared with processor 27 = 2100
    Number of faces shared with processor 30 = 4224
    Number of faces shared with processor 39 = 20099
    Number of processor patches = 5
    Number of processor faces = 46448
    Number of boundary faces = 6350

Processor 32
    Number of cells = 420030
    Number of points = 446668
    Number of faces shared with processor 24 = 20000
    Number of faces shared with processor 33 = 4200
    Number of faces shared with processor 36 = 2110
    Number of faces shared with processor 40 = 20015
    Number of processor patches = 4
    Number of processor faces = 46325
    Number of boundary faces = 6305

Processor 33
    Number of cells = 420000
    Number of points = 446622
    Number of faces shared with processor 25 = 20000
    Number of faces shared with processor 32 = 4200
    Number of faces shared with processor 34 = 4200
    Number of faces shared with processor 37 = 2100
    Number of faces shared with processor 41 = 20000
    Number of processor patches = 5
    Number of processor faces = 50500
    Number of boundary faces = 2100

Processor 34
    Number of cells = 420000
    Number of points = 446622
    Number of faces shared with processor 26 = 20000
    Number of faces shared with processor 33 = 4200
    Number of faces shared with processor 35 = 4200
    Number of faces shared with processor 38 = 2100
    Number of faces shared with processor 42 = 20000
    Number of processor patches = 5
    Number of processor faces = 50500
    Number of boundary faces = 2100

Processor 35
    Number of cells = 420000
    Number of points = 446622
    Number of faces shared with processor 27 = 20000
    Number of faces shared with processor 34 = 4200
    Number of faces shared with processor 39 = 2100
    Number of faces shared with processor 43 = 20000
    Number of processor patches = 4
    Number of processor faces = 46300
    Number of boundary faces = 6300

Processor 36
    Number of cells = 422157
    Number of points = 448946
    Number of faces shared with processor 28 = 20150
    Number of faces shared with processor 32 = 2110
    Number of faces shared with processor 37 = 4221
    Number of faces shared with processor 40 = 2
    Number of faces shared with processor 44 = 20132
    Number of faces shared with processor 45 = 1
    Number of processor patches = 6
    Number of processor faces = 46616
    Number of boundary faces = 6316

Processor 37
    Number of cells = 422200
    Number of points = 448994
    Number of faces shared with processor 28 = 1
    Number of faces shared with processor 29 = 20149
    Number of faces shared with processor 33 = 2100
    Number of faces shared with processor 36 = 4221
    Number of faces shared with processor 38 = 4221
    Number of faces shared with processor 45 = 20149
    Number of faces shared with processor 46 = 1
    Number of processor patches = 7
    Number of processor faces = 50842
    Number of boundary faces = 2100

Processor 38
    Number of cells = 422156
    Number of points = 448950
    Number of faces shared with processor 29 = 1
    Number of faces shared with processor 30 = 20149
    Number of faces shared with processor 34 = 2100
    Number of faces shared with processor 37 = 4221
    Number of faces shared with processor 39 = 4221
    Number of faces shared with processor 46 = 20150
    Number of processor patches = 6
    Number of processor faces = 50842
    Number of boundary faces = 2100

Processor 39
    Number of cells = 421878
    Number of points = 448656
    Number of faces shared with processor 30 = 1
    Number of faces shared with processor 31 = 20099
    Number of faces shared with processor 35 = 2100
    Number of faces shared with processor 38 = 4221
    Number of faces shared with processor 47 = 20150
    Number of processor patches = 5
    Number of processor faces = 46571
    Number of boundary faces = 6339

Processor 40
    Number of cells = 420672
    Number of points = 447373
    Number of faces shared with processor 32 = 20015
    Number of faces shared with processor 36 = 2
    Number of faces shared with processor 41 = 4200
    Number of faces shared with processor 44 = 2140
    Number of faces shared with processor 48 = 20078
    Number of processor patches = 5
    Number of processor faces = 46435
    Number of boundary faces = 6321

Processor 41
    Number of cells = 420000
    Number of points = 446622
    Number of faces shared with processor 33 = 20000
    Number of faces shared with processor 40 = 4200
    Number of faces shared with processor 42 = 4200
    Number of faces shared with processor 45 = 2100
    Number of faces shared with processor 49 = 20000
    Number of processor patches = 5
    Number of processor faces = 50500
    Number of boundary faces = 2100

Processor 42
    Number of cells = 420000
    Number of points = 446622
    Number of faces shared with processor 34 = 20000
    Number of faces shared with processor 41 = 4200
    Number of faces shared with processor 43 = 4200
    Number of faces shared with processor 46 = 2100
    Number of faces shared with processor 50 = 20000
    Number of processor patches = 5
    Number of processor faces = 50500
    Number of boundary faces = 2100

Processor 43
    Number of cells = 420000
    Number of points = 446622
    Number of faces shared with processor 35 = 20000
    Number of faces shared with processor 42 = 4200
    Number of faces shared with processor 47 = 2100
    Number of faces shared with processor 51 = 20000
    Number of processor patches = 4
    Number of processor faces = 46300
    Number of boundary faces = 6300

Processor 44
    Number of cells = 421428
    Number of points = 448183
    Number of faces shared with processor 36 = 20132
    Number of faces shared with processor 40 = 2140
    Number of faces shared with processor 45 = 4220
    Number of faces shared with processor 48 = 2
    Number of faces shared with processor 52 = 20069
    Number of faces shared with processor 53 = 1
    Number of processor patches = 6
    Number of processor faces = 46564
    Number of boundary faces = 6300

Processor 45
    Number of cells = 422100
    Number of points = 448893
    Number of faces shared with processor 36 = 1
    Number of faces shared with processor 37 = 20149
    Number of faces shared with processor 41 = 2100
    Number of faces shared with processor 44 = 4220
    Number of faces shared with processor 46 = 4220
    Number of faces shared with processor 53 = 20149
    Number of faces shared with processor 54 = 1
    Number of processor patches = 7
    Number of processor faces = 50840
    Number of boundary faces = 2100

Processor 46
    Number of cells = 422121
    Number of points = 448915
    Number of faces shared with processor 37 = 1
    Number of faces shared with processor 38 = 20150
    Number of faces shared with processor 42 = 2100
    Number of faces shared with processor 45 = 4220
    Number of faces shared with processor 47 = 4221
    Number of faces shared with processor 54 = 20150
    Number of processor patches = 6
    Number of processor faces = 50842
    Number of boundary faces = 2100

Processor 47
    Number of cells = 422100
    Number of points = 448894
    Number of faces shared with processor 39 = 20150
    Number of faces shared with processor 43 = 2100
    Number of faces shared with processor 46 = 4221
    Number of faces shared with processor 55 = 20150
    Number of processor patches = 4
    Number of processor faces = 46621
    Number of boundary faces = 6321

Processor 48
    Number of cells = 421554
    Number of points = 448318
    Number of faces shared with processor 40 = 20078
    Number of faces shared with processor 44 = 2
    Number of faces shared with processor 49 = 4200
    Number of faces shared with processor 52 = 2140
    Number of faces shared with processor 56 = 20141
    Number of processor patches = 5
    Number of processor faces = 46561
    Number of boundary faces = 6321

Processor 49
    Number of cells = 420000
    Number of points = 446622
    Number of faces shared with processor 41 = 20000
    Number of faces shared with processor 48 = 4200
    Number of faces shared with processor 50 = 4200
    Number of faces shared with processor 53 = 2100
    Number of faces shared with processor 57 = 20000
    Number of processor patches = 5
    Number of processor faces = 50500
    Number of boundary faces = 2100

Processor 50
    Number of cells = 420000
    Number of points = 446622
    Number of faces shared with processor 42 = 20000
    Number of faces shared with processor 49 = 4200
    Number of faces shared with processor 51 = 4200
    Number of faces shared with processor 54 = 2100
    Number of faces shared with processor 58 = 20000
    Number of processor patches = 5
    Number of processor faces = 50500
    Number of boundary faces = 2100

Processor 51
    Number of cells = 420000
    Number of points = 446622
    Number of faces shared with processor 43 = 20000
    Number of faces shared with processor 50 = 4200
    Number of faces shared with processor 55 = 2100
    Number of faces shared with processor 59 = 20000
    Number of processor patches = 4
    Number of processor faces = 46300
    Number of boundary faces = 6300

Processor 52
    Number of cells = 420546
    Number of points = 447238
    Number of faces shared with processor 44 = 20069
    Number of faces shared with processor 48 = 2140
    Number of faces shared with processor 53 = 4220
    Number of faces shared with processor 56 = 2
    Number of faces shared with processor 60 = 20006
    Number of faces shared with processor 61 = 1
    Number of processor patches = 6
    Number of processor faces = 46438
    Number of boundary faces = 6300

Processor 53
    Number of cells = 422100
    Number of points = 448893
    Number of faces shared with processor 44 = 1
    Number of faces shared with processor 45 = 20149
    Number of faces shared with processor 49 = 2100
    Number of faces shared with processor 52 = 4220
    Number of faces shared with processor 54 = 4220
    Number of faces shared with processor 61 = 20149
    Number of faces shared with processor 62 = 1
    Number of processor patches = 7
    Number of processor faces = 50840
    Number of boundary faces = 2100

Processor 54
    Number of cells = 422121
    Number of points = 448915
    Number of faces shared with processor 45 = 1
    Number of faces shared with processor 46 = 20150
    Number of faces shared with processor 50 = 2100
    Number of faces shared with processor 53 = 4220
    Number of faces shared with processor 55 = 4221
    Number of faces shared with processor 62 = 20150
    Number of processor patches = 6
    Number of processor faces = 50842
    Number of boundary faces = 2100

Processor 55
    Number of cells = 422100
    Number of points = 448894
    Number of faces shared with processor 47 = 20150
    Number of faces shared with processor 51 = 2100
    Number of faces shared with processor 54 = 4221
    Number of faces shared with processor 63 = 20150
    Number of processor patches = 4
    Number of processor faces = 46621
    Number of boundary faces = 6321

Processor 56
    Number of cells = 422094
    Number of points = 448885
    Number of faces shared with processor 48 = 20141
    Number of faces shared with processor 52 = 2
    Number of faces shared with processor 57 = 4218
    Number of faces shared with processor 60 = 2104
    Number of faces shared with processor 64 = 20149
    Number of faces shared with processor 65 = 1
    Number of processor patches = 6
    Number of processor faces = 46615
    Number of boundary faces = 6321

Processor 57
    Number of cells = 420342
    Number of points = 447019
    Number of faces shared with processor 49 = 20000
    Number of faces shared with processor 56 = 4218
    Number of faces shared with processor 58 = 4200
    Number of faces shared with processor 61 = 2136
    Number of faces shared with processor 65 = 20054
    Number of processor patches = 5
    Number of processor faces = 50608
    Number of boundary faces = 2100

Processor 58
    Number of cells = 420000
    Number of points = 446622
    Number of faces shared with processor 50 = 20000
    Number of faces shared with processor 57 = 4200
    Number of faces shared with processor 59 = 4200
    Number of faces shared with processor 62 = 2100
    Number of faces shared with processor 66 = 20000
    Number of processor patches = 5
    Number of processor faces = 50500
    Number of boundary faces = 2100

Processor 59
    Number of cells = 420000
    Number of points = 446622
    Number of faces shared with processor 51 = 20000
    Number of faces shared with processor 58 = 4200
    Number of faces shared with processor 63 = 2100
    Number of faces shared with processor 67 = 20000
    Number of processor patches = 4
    Number of processor faces = 46300
    Number of boundary faces = 6300

Processor 60
    Number of cells = 420006
    Number of points = 446635
    Number of faces shared with processor 52 = 20006
    Number of faces shared with processor 56 = 2104
    Number of faces shared with processor 61 = 4202
    Number of faces shared with processor 68 = 20000
    Number of processor patches = 4
    Number of processor faces = 46312
    Number of boundary faces = 6300

Processor 61
    Number of cells = 421758
    Number of points = 448533
    Number of faces shared with processor 52 = 1
    Number of faces shared with processor 53 = 20149
    Number of faces shared with processor 57 = 2136
    Number of faces shared with processor 60 = 4202
    Number of faces shared with processor 62 = 4220
    Number of faces shared with processor 65 = 2
    Number of faces shared with processor 69 = 20093
    Number of faces shared with processor 70 = 1
    Number of processor patches = 8
    Number of processor faces = 50804
    Number of boundary faces = 2100

Processor 62
    Number of cells = 422102
    Number of points = 448896
    Number of faces shared with processor 53 = 1
    Number of faces shared with processor 54 = 20150
    Number of faces shared with processor 58 = 2100
    Number of faces shared with processor 61 = 4220
    Number of faces shared with processor 63 = 4221
    Number of faces shared with processor 70 = 20149
    Number of faces shared with processor 71 = 1
    Number of processor patches = 7
    Number of processor faces = 50842
    Number of boundary faces = 2100

Processor 63
    Number of cells = 422119
    Number of points = 448913
    Number of faces shared with processor 55 = 20150
    Number of faces shared with processor 59 = 2100
    Number of faces shared with processor 62 = 4221
    Number of faces shared with processor 71 = 20150
    Number of processor patches = 4
    Number of processor faces = 46621
    Number of boundary faces = 6321

Processor 64
    Number of cells = 422100
    Number of points = 448893
    Number of faces shared with processor 56 = 20149
    Number of faces shared with processor 65 = 4220
    Number of faces shared with processor 68 = 2100
    Number of faces shared with processor 72 = 20149
    Number of faces shared with processor 73 = 1
    Number of processor patches = 5
    Number of processor faces = 46619
    Number of boundary faces = 6321

Processor 65
    Number of cells = 421218
    Number of points = 447958
    Number of faces shared with processor 56 = 1
    Number of faces shared with processor 57 = 20054
    Number of faces shared with processor 61 = 2
    Number of faces shared with processor 64 = 4220
    Number of faces shared with processor 66 = 4200
    Number of faces shared with processor 69 = 2140
    Number of faces shared with processor 73 = 20117
    Number of processor patches = 7
    Number of processor faces = 50734
    Number of boundary faces = 2100

Processor 66
    Number of cells = 420000
    Number of points = 446622
    Number of faces shared with processor 58 = 20000
    Number of faces shared with processor 65 = 4200
    Number of faces shared with processor 67 = 4200
    Number of faces shared with processor 70 = 2100
    Number of faces shared with processor 74 = 20000
    Number of processor patches = 5
    Number of processor faces = 50500
    Number of boundary faces = 2100

Processor 67
    Number of cells = 420000
    Number of points = 446622
    Number of faces shared with processor 59 = 20000
    Number of faces shared with processor 66 = 4200
    Number of faces shared with processor 71 = 2100
    Number of faces shared with processor 75 = 20000
    Number of processor patches = 4
    Number of processor faces = 46300
    Number of boundary faces = 6300

Processor 68
    Number of cells = 420000
    Number of points = 446622
    Number of faces shared with processor 60 = 20000
    Number of faces shared with processor 64 = 2100
    Number of faces shared with processor 69 = 4200
    Number of faces shared with processor 76 = 20000
    Number of processor patches = 4
    Number of processor faces = 46300
    Number of boundary faces = 6300

Processor 69
    Number of cells = 420882
    Number of points = 447598
    Number of faces shared with processor 61 = 20093
    Number of faces shared with processor 65 = 2140
    Number of faces shared with processor 68 = 4200
    Number of faces shared with processor 70 = 4220
    Number of faces shared with processor 73 = 2
    Number of faces shared with processor 77 = 20030
    Number of faces shared with processor 78 = 1
    Number of processor patches = 7
    Number of processor faces = 50686
    Number of boundary faces = 2100

Processor 70
    Number of cells = 422100
    Number of points = 448893
    Number of faces shared with processor 61 = 1
    Number of faces shared with processor 62 = 20149
    Number of faces shared with processor 66 = 2100
    Number of faces shared with processor 69 = 4220
    Number of faces shared with processor 71 = 4220
    Number of faces shared with processor 78 = 20149
    Number of faces shared with processor 79 = 1
    Number of processor patches = 7
    Number of processor faces = 50840
    Number of boundary faces = 2100

Processor 71
    Number of cells = 422121
    Number of points = 448915
    Number of faces shared with processor 62 = 1
    Number of faces shared with processor 63 = 20150
    Number of faces shared with processor 67 = 2100
    Number of faces shared with processor 70 = 4220
    Number of faces shared with processor 79 = 20150
    Number of processor patches = 5
    Number of processor faces = 46621
    Number of boundary faces = 6321

Processor 72
    Number of cells = 422111
    Number of points = 448905
    Number of faces shared with processor 64 = 20149
    Number of faces shared with processor 73 = 4220
    Number of faces shared with processor 76 = 2100
    Number of faces shared with processor 80 = 20150
    Number of faces shared with processor 81 = 1
    Number of processor patches = 5
    Number of processor faces = 46620
    Number of boundary faces = 6322

Processor 73
    Number of cells = 421990
    Number of points = 448773
    Number of faces shared with processor 64 = 1
    Number of faces shared with processor 65 = 20117
    Number of faces shared with processor 69 = 2
    Number of faces shared with processor 72 = 4220
    Number of faces shared with processor 74 = 4210
    Number of faces shared with processor 77 = 2120
    Number of faces shared with processor 81 = 20149
    Number of faces shared with processor 82 = 1
    Number of processor patches = 8
    Number of processor faces = 50820
    Number of boundary faces = 2100

Processor 74
    Number of cells = 420110
    Number of points = 446763
    Number of faces shared with processor 66 = 20000
    Number of faces shared with processor 73 = 4210
    Number of faces shared with processor 75 = 4200
    Number of faces shared with processor 78 = 2120
    Number of faces shared with processor 82 = 20030
    Number of processor patches = 5
    Number of processor faces = 50560
    Number of boundary faces = 2100

Processor 75
    Number of cells = 420000
    Number of points = 446622
    Number of faces shared with processor 67 = 20000
    Number of faces shared with processor 74 = 4200
    Number of faces shared with processor 79 = 2100
    Number of faces shared with processor 83 = 20000
    Number of processor patches = 4
    Number of processor faces = 46300
    Number of boundary faces = 6300

Processor 76
    Number of cells = 420000
    Number of points = 446622
    Number of faces shared with processor 68 = 20000
    Number of faces shared with processor 72 = 2100
    Number of faces shared with processor 77 = 4200
    Number of faces shared with processor 84 = 20000
    Number of processor patches = 4
    Number of processor faces = 46300
    Number of boundary faces = 6300

Processor 77
    Number of cells = 420110
    Number of points = 446763
    Number of faces shared with processor 69 = 20030
    Number of faces shared with processor 73 = 2120
    Number of faces shared with processor 76 = 4200
    Number of faces shared with processor 78 = 4210
    Number of faces shared with processor 85 = 20000
    Number of processor patches = 5
    Number of processor faces = 50560
    Number of boundary faces = 2100

Processor 78
    Number of cells = 421990
    Number of points = 448773
    Number of faces shared with processor 69 = 1
    Number of faces shared with processor 70 = 20149
    Number of faces shared with processor 74 = 2120
    Number of faces shared with processor 77 = 4210
    Number of faces shared with processor 79 = 4220
    Number of faces shared with processor 82 = 2
    Number of faces shared with processor 86 = 20117
    Number of faces shared with processor 87 = 1
    Number of processor patches = 8
    Number of processor faces = 50820
    Number of boundary faces = 2100

Processor 79
    Number of cells = 422110
    Number of points = 448904
    Number of faces shared with processor 70 = 1
    Number of faces shared with processor 71 = 20150
    Number of faces shared with processor 75 = 2100
    Number of faces shared with processor 78 = 4220
    Number of faces shared with processor 87 = 20149
    Number of processor patches = 5
    Number of processor faces = 46620
    Number of boundary faces = 6322

Processor 80
    Number of cells = 422121
    Number of points = 448915
    Number of faces shared with processor 72 = 20150
    Number of faces shared with processor 81 = 4220
    Number of faces shared with processor 84 = 2100
    Number of faces shared with processor 88 = 20150
    Number of faces shared with processor 89 = 1
    Number of processor patches = 5
    Number of processor faces = 46621
    Number of boundary faces = 6321

Processor 81
    Number of cells = 422100
    Number of points = 448893
    Number of faces shared with processor 72 = 1
    Number of faces shared with processor 73 = 20149
    Number of faces shared with processor 80 = 4220
    Number of faces shared with processor 82 = 4220
    Number of faces shared with processor 85 = 2100
    Number of faces shared with processor 89 = 20149
    Number of faces shared with processor 90 = 1
    Number of processor patches = 7
    Number of processor faces = 50840
    Number of boundary faces = 2100

Processor 82
    Number of cells = 420882
    Number of points = 447598
    Number of faces shared with processor 73 = 1
    Number of faces shared with processor 74 = 20030
    Number of faces shared with processor 78 = 2
    Number of faces shared with processor 81 = 4220
    Number of faces shared with processor 83 = 4200
    Number of faces shared with processor 86 = 2140
    Number of faces shared with processor 90 = 20093
    Number of processor patches = 7
    Number of processor faces = 50686
    Number of boundary faces = 2100

Processor 83
    Number of cells = 420000
    Number of points = 446622
    Number of faces shared with processor 75 = 20000
    Number of faces shared with processor 82 = 4200
    Number of faces shared with processor 87 = 2100
    Number of faces shared with processor 91 = 20000
    Number of processor patches = 4
    Number of processor faces = 46300
    Number of boundary faces = 6300

Processor 84
    Number of cells = 420000
    Number of points = 446622
    Number of faces shared with processor 76 = 20000
    Number of faces shared with processor 80 = 2100
    Number of faces shared with processor 85 = 4200
    Number of faces shared with processor 92 = 20000
    Number of processor patches = 4
    Number of processor faces = 46300
    Number of boundary faces = 6300

Processor 85
    Number of cells = 420000
    Number of points = 446622
    Number of faces shared with processor 77 = 20000
    Number of faces shared with processor 81 = 2100
    Number of faces shared with processor 84 = 4200
    Number of faces shared with processor 86 = 4200
    Number of faces shared with processor 93 = 20000
    Number of processor patches = 5
    Number of processor faces = 50500
    Number of boundary faces = 2100

Processor 86
    Number of cells = 421218
    Number of points = 447958
    Number of faces shared with processor 78 = 20117
    Number of faces shared with processor 82 = 2140
    Number of faces shared with processor 85 = 4200
    Number of faces shared with processor 87 = 4220
    Number of faces shared with processor 90 = 2
    Number of faces shared with processor 94 = 20054
    Number of faces shared with processor 95 = 1
    Number of processor patches = 7
    Number of processor faces = 50734
    Number of boundary faces = 2100

Processor 87
    Number of cells = 422100
    Number of points = 448893
    Number of faces shared with processor 78 = 1
    Number of faces shared with processor 79 = 20149
    Number of faces shared with processor 83 = 2100
    Number of faces shared with processor 86 = 4220
    Number of faces shared with processor 95 = 20149
    Number of processor patches = 5
    Number of processor faces = 46619
    Number of boundary faces = 6321

Processor 88
    Number of cells = 422118
    Number of points = 448912
    Number of faces shared with processor 80 = 20150
    Number of faces shared with processor 89 = 4221
    Number of faces shared with processor 92 = 2100
    Number of faces shared with processor 96 = 20150
    Number of processor patches = 4
    Number of processor faces = 46621
    Number of boundary faces = 6321

Processor 89
    Number of cells = 422103
    Number of points = 448897
    Number of faces shared with processor 80 = 1
    Number of faces shared with processor 81 = 20149
    Number of faces shared with processor 88 = 4221
    Number of faces shared with processor 90 = 4220
    Number of faces shared with processor 93 = 2100
    Number of faces shared with processor 97 = 20150
    Number of faces shared with processor 98 = 1
    Number of processor patches = 7
    Number of processor faces = 50842
    Number of boundary faces = 2100

Processor 90
    Number of cells = 421758
    Number of points = 448533
    Number of faces shared with processor 81 = 1
    Number of faces shared with processor 82 = 20093
    Number of faces shared with processor 86 = 2
    Number of faces shared with processor 89 = 4220
    Number of faces shared with processor 91 = 4202
    Number of faces shared with processor 94 = 2136
    Number of faces shared with processor 98 = 20149
    Number of faces shared with processor 99 = 1
    Number of processor patches = 8
    Number of processor faces = 50804
    Number of boundary faces = 2100

Processor 91
    Number of cells = 420006
    Number of points = 446635
    Number of faces shared with processor 83 = 20000
    Number of faces shared with processor 90 = 4202
    Number of faces shared with processor 95 = 2104
    Number of faces shared with processor 99 = 20006
    Number of processor patches = 4
    Number of processor faces = 46312
    Number of boundary faces = 6300

Processor 92
    Number of cells = 420000
    Number of points = 446622
    Number of faces shared with processor 84 = 20000
    Number of faces shared with processor 88 = 2100
    Number of faces shared with processor 93 = 4200
    Number of faces shared with processor 100 = 20000
    Number of processor patches = 4
    Number of processor faces = 46300
    Number of boundary faces = 6300

Processor 93
    Number of cells = 420000
    Number of points = 446622
    Number of faces shared with processor 85 = 20000
    Number of faces shared with processor 89 = 2100
    Number of faces shared with processor 92 = 4200
    Number of faces shared with processor 94 = 4200
    Number of faces shared with processor 101 = 20000
    Number of processor patches = 5
    Number of processor faces = 50500
    Number of boundary faces = 2100

Processor 94
    Number of cells = 420342
    Number of points = 447019
    Number of faces shared with processor 86 = 20054
    Number of faces shared with processor 90 = 2136
    Number of faces shared with processor 93 = 4200
    Number of faces shared with processor 95 = 4218
    Number of faces shared with processor 102 = 20000
    Number of processor patches = 5
    Number of processor faces = 50608
    Number of boundary faces = 2100

Processor 95
    Number of cells = 422094
    Number of points = 448885
    Number of faces shared with processor 86 = 1
    Number of faces shared with processor 87 = 20149
    Number of faces shared with processor 91 = 2104
    Number of faces shared with processor 94 = 4218
    Number of faces shared with processor 99 = 2
    Number of faces shared with processor 103 = 20141
    Number of processor patches = 6
    Number of processor faces = 46615
    Number of boundary faces = 6321

Processor 96
    Number of cells = 422100
    Number of points = 448894
    Number of faces shared with processor 88 = 20150
    Number of faces shared with processor 97 = 4221
    Number of faces shared with processor 100 = 2100
    Number of faces shared with processor 104 = 20150
    Number of processor patches = 4
    Number of processor faces = 46621
    Number of boundary faces = 6321

Processor 97
    Number of cells = 422121
    Number of points = 448915
    Number of faces shared with processor 89 = 20150
    Number of faces shared with processor 96 = 4221
    Number of faces shared with processor 98 = 4220
    Number of faces shared with processor 101 = 2100
    Number of faces shared with processor 105 = 20150
    Number of faces shared with processor 106 = 1
    Number of processor patches = 6
    Number of processor faces = 50842
    Number of boundary faces = 2100

Processor 98
    Number of cells = 422100
    Number of points = 448893
    Number of faces shared with processor 89 = 1
    Number of faces shared with processor 90 = 20149
    Number of faces shared with processor 97 = 4220
    Number of faces shared with processor 99 = 4220
    Number of faces shared with processor 102 = 2100
    Number of faces shared with processor 106 = 20149
    Number of faces shared with processor 107 = 1
    Number of processor patches = 7
    Number of processor faces = 50840
    Number of boundary faces = 2100

Processor 99
    Number of cells = 420546
    Number of points = 447238
    Number of faces shared with processor 90 = 1
    Number of faces shared with processor 91 = 20006
    Number of faces shared with processor 95 = 2
    Number of faces shared with processor 98 = 4220
    Number of faces shared with processor 103 = 2140
    Number of faces shared with processor 107 = 20069
    Number of processor patches = 6
    Number of processor faces = 46438
    Number of boundary faces = 6300

Processor 100
    Number of cells = 420000
    Number of points = 446622
    Number of faces shared with processor 92 = 20000
    Number of faces shared with processor 96 = 2100
    Number of faces shared with processor 101 = 4200
    Number of faces shared with processor 108 = 20000
    Number of processor patches = 4
    Number of processor faces = 46300
    Number of boundary faces = 6300

Processor 101
    Number of cells = 420000
    Number of points = 446622
    Number of faces shared with processor 93 = 20000
    Number of faces shared with processor 97 = 2100
    Number of faces shared with processor 100 = 4200
    Number of faces shared with processor 102 = 4200
    Number of faces shared with processor 109 = 20000
    Number of processor patches = 5
    Number of processor faces = 50500
    Number of boundary faces = 2100

Processor 102
    Number of cells = 420000
    Number of points = 446622
    Number of faces shared with processor 94 = 20000
    Number of faces shared with processor 98 = 2100
    Number of faces shared with processor 101 = 4200
    Number of faces shared with processor 103 = 4200
    Number of faces shared with processor 110 = 20000
    Number of processor patches = 5
    Number of processor faces = 50500
    Number of boundary faces = 2100

Processor 103
    Number of cells = 421554
    Number of points = 448318
    Number of faces shared with processor 95 = 20141
    Number of faces shared with processor 99 = 2140
    Number of faces shared with processor 102 = 4200
    Number of faces shared with processor 107 = 2
    Number of faces shared with processor 111 = 20078
    Number of processor patches = 5
    Number of processor faces = 46561
    Number of boundary faces = 6321

Processor 104
    Number of cells = 422100
    Number of points = 448894
    Number of faces shared with processor 96 = 20150
    Number of faces shared with processor 105 = 4221
    Number of faces shared with processor 108 = 2100
    Number of faces shared with processor 112 = 20150
    Number of processor patches = 4
    Number of processor faces = 46621
    Number of boundary faces = 6321

Processor 105
    Number of cells = 422121
    Number of points = 448915
    Number of faces shared with processor 97 = 20150
    Number of faces shared with processor 104 = 4221
    Number of faces shared with processor 106 = 4220
    Number of faces shared with processor 109 = 2100
    Number of faces shared with processor 113 = 20150
    Number of faces shared with processor 114 = 1
    Number of processor patches = 6
    Number of processor faces = 50842
    Number of boundary faces = 2100

Processor 106
    Number of cells = 422100
    Number of points = 448893
    Number of faces shared with processor 97 = 1
    Number of faces shared with processor 98 = 20149
    Number of faces shared with processor 105 = 4220
    Number of faces shared with processor 107 = 4220
    Number of faces shared with processor 110 = 2100
    Number of faces shared with processor 114 = 20149
    Number of faces shared with processor 115 = 1
    Number of processor patches = 7
    Number of processor faces = 50840
    Number of boundary faces = 2100

Processor 107
    Number of cells = 421428
    Number of points = 448183
    Number of faces shared with processor 98 = 1
    Number of faces shared with processor 99 = 20069
    Number of faces shared with processor 103 = 2
    Number of faces shared with processor 106 = 4220
    Number of faces shared with processor 111 = 2140
    Number of faces shared with processor 115 = 20132
    Number of processor patches = 6
    Number of processor faces = 46564
    Number of boundary faces = 6300

Processor 108
    Number of cells = 420000
    Number of points = 446622
    Number of faces shared with processor 100 = 20000
    Number of faces shared with processor 104 = 2100
    Number of faces shared with processor 109 = 4200
    Number of faces shared with processor 116 = 20000
    Number of processor patches = 4
    Number of processor faces = 46300
    Number of boundary faces = 6300

Processor 109
    Number of cells = 420000
    Number of points = 446622
    Number of faces shared with processor 101 = 20000
    Number of faces shared with processor 105 = 2100
    Number of faces shared with processor 108 = 4200
    Number of faces shared with processor 110 = 4200
    Number of faces shared with processor 117 = 20000
    Number of processor patches = 5
    Number of processor faces = 50500
    Number of boundary faces = 2100

Processor 110
    Number of cells = 420000
    Number of points = 446622
    Number of faces shared with processor 102 = 20000
    Number of faces shared with processor 106 = 2100
    Number of faces shared with processor 109 = 4200
    Number of faces shared with processor 111 = 4200
    Number of faces shared with processor 118 = 20000
    Number of processor patches = 5
    Number of processor faces = 50500
    Number of boundary faces = 2100

Processor 111
    Number of cells = 420672
    Number of points = 447373
    Number of faces shared with processor 103 = 20078
    Number of faces shared with processor 107 = 2140
    Number of faces shared with processor 110 = 4200
    Number of faces shared with processor 115 = 2
    Number of faces shared with processor 119 = 20015
    Number of processor patches = 5
    Number of processor faces = 46435
    Number of boundary faces = 6321

Processor 112
    Number of cells = 421878
    Number of points = 448656
    Number of faces shared with processor 104 = 20150
    Number of faces shared with processor 113 = 4221
    Number of faces shared with processor 116 = 2100
    Number of faces shared with processor 120 = 20099
    Number of faces shared with processor 121 = 1
    Number of processor patches = 5
    Number of processor faces = 46571
    Number of boundary faces = 6339

Processor 113
    Number of cells = 422155
    Number of points = 448949
    Number of faces shared with processor 105 = 20150
    Number of faces shared with processor 112 = 4221
    Number of faces shared with processor 114 = 4221
    Number of faces shared with processor 117 = 2100
    Number of faces shared with processor 121 = 20149
    Number of faces shared with processor 122 = 1
    Number of processor patches = 6
    Number of processor faces = 50842
    Number of boundary faces = 2100

Processor 114
    Number of cells = 422200
    Number of points = 448994
    Number of faces shared with processor 105 = 1
    Number of faces shared with processor 106 = 20149
    Number of faces shared with processor 113 = 4221
    Number of faces shared with processor 115 = 4221
    Number of faces shared with processor 118 = 2100
    Number of faces shared with processor 122 = 20149
    Number of faces shared with processor 123 = 1
    Number of processor patches = 7
    Number of processor faces = 50842
    Number of boundary faces = 2100

Processor 115
    Number of cells = 422158
    Number of points = 448947
    Number of faces shared with processor 106 = 1
    Number of faces shared with processor 107 = 20132
    Number of faces shared with processor 111 = 2
    Number of faces shared with processor 114 = 4221
    Number of faces shared with processor 119 = 2110
    Number of faces shared with processor 123 = 20150
    Number of processor patches = 6
    Number of processor faces = 46616
    Number of boundary faces = 6316

Processor 116
    Number of cells = 420000
    Number of points = 446622
    Number of faces shared with processor 108 = 20000
    Number of faces shared with processor 112 = 2100
    Number of faces shared with processor 117 = 4200
    Number of faces shared with processor 124 = 20000
    Number of processor patches = 4
    Number of processor faces = 46300
    Number of boundary faces = 6300

Processor 117
    Number of cells = 420000
    Number of points = 446622
    Number of faces shared with processor 109 = 20000
    Number of faces shared with processor 113 = 2100
    Number of faces shared with processor 116 = 4200
    Number of faces shared with processor 118 = 4200
    Number of faces shared with processor 125 = 20000
    Number of processor patches = 5
    Number of processor faces = 50500
    Number of boundary faces = 2100

Processor 118
    Number of cells = 420000
    Number of points = 446622
    Number of faces shared with processor 110 = 20000
    Number of faces shared with processor 114 = 2100
    Number of faces shared with processor 117 = 4200
    Number of faces shared with processor 119 = 4200
    Number of faces shared with processor 126 = 20000
    Number of processor patches = 5
    Number of processor faces = 50500
    Number of boundary faces = 2100

Processor 119
    Number of cells = 420030
    Number of points = 446668
    Number of faces shared with processor 111 = 20015
    Number of faces shared with processor 115 = 2110
    Number of faces shared with processor 118 = 4200
    Number of faces shared with processor 127 = 20000
    Number of processor patches = 4
    Number of processor faces = 46325
    Number of boundary faces = 6305

Processor 120
    Number of cells = 421050
    Number of points = 447772
    Number of faces shared with processor 128 = 20024
    Number of faces shared with processor 129 = 1
    Number of faces shared with processor 112 = 20099
    Number of faces shared with processor 121 = 4224
    Number of faces shared with processor 124 = 2100
    Number of processor patches = 5
    Number of processor faces = 46448
    Number of boundary faces = 6350

Processor 121
    Number of cells = 422459
    Number of points = 449256
    Number of faces shared with processor 129 = 20150
    Number of faces shared with processor 112 = 1
    Number of faces shared with processor 113 = 20149
    Number of faces shared with processor 120 = 4224
    Number of faces shared with processor 122 = 4224
    Number of faces shared with processor 125 = 2100
    Number of processor patches = 6
    Number of processor faces = 50848
    Number of boundary faces = 2100

Processor 122
    Number of cells = 422450
    Number of points = 449247
    Number of faces shared with processor 130 = 20150
    Number of faces shared with processor 113 = 1
    Number of faces shared with processor 114 = 20149
    Number of faces shared with processor 121 = 4224
    Number of faces shared with processor 123 = 4224
    Number of faces shared with processor 126 = 2100
    Number of processor patches = 6
    Number of processor faces = 50848
    Number of boundary faces = 2100

Processor 123
    Number of cells = 422462
    Number of points = 449260
    Number of faces shared with processor 131 = 20150
    Number of faces shared with processor 114 = 1
    Number of faces shared with processor 115 = 20150
    Number of faces shared with processor 122 = 4224
    Number of faces shared with processor 127 = 2100
    Number of processor patches = 5
    Number of processor faces = 46625
    Number of boundary faces = 6325

Processor 124
    Number of cells = 420000
    Number of points = 446622
    Number of faces shared with processor 132 = 20000
    Number of faces shared with processor 116 = 20000
    Number of faces shared with processor 120 = 2100
    Number of faces shared with processor 125 = 4200
    Number of processor patches = 4
    Number of processor faces = 46300
    Number of boundary faces = 6300

Processor 125
    Number of cells = 420000
    Number of points = 446622
    Number of faces shared with processor 133 = 20000
    Number of faces shared with processor 117 = 20000
    Number of faces shared with processor 121 = 2100
    Number of faces shared with processor 124 = 4200
    Number of faces shared with processor 126 = 4200
    Number of processor patches = 5
    Number of processor faces = 50500
    Number of boundary faces = 2100

Processor 126
    Number of cells = 420000
    Number of points = 446622
    Number of faces shared with processor 134 = 20000
    Number of faces shared with processor 118 = 20000
    Number of faces shared with processor 122 = 2100
    Number of faces shared with processor 125 = 4200
    Number of faces shared with processor 127 = 4200
    Number of processor patches = 5
    Number of processor faces = 50500
    Number of boundary faces = 2100

Processor 127
    Number of cells = 420000
    Number of points = 446622
    Number of faces shared with processor 135 = 20000
    Number of faces shared with processor 119 = 20000
    Number of faces shared with processor 123 = 2100
    Number of faces shared with processor 126 = 4200
    Number of processor patches = 4
    Number of processor faces = 46300
    Number of boundary faces = 6300

Processor 128
    Number of cells = 420072
    Number of points = 446719
    Number of faces shared with processor 129 = 4208
    Number of faces shared with processor 132 = 2100
    Number of faces shared with processor 136 = 20000
    Number of faces shared with processor 120 = 20024
    Number of processor patches = 4
    Number of processor faces = 46332
    Number of boundary faces = 6316

Processor 129
    Number of cells = 422521
    Number of points = 449303
    Number of faces shared with processor 128 = 4208
    Number of faces shared with processor 130 = 4229
    Number of faces shared with processor 133 = 2100
    Number of faces shared with processor 137 = 20087
    Number of faces shared with processor 138 = 1
    Number of faces shared with processor 120 = 1
    Number of faces shared with processor 121 = 20150
    Number of processor patches = 7
    Number of processor faces = 50776
    Number of boundary faces = 2142

Processor 130
    Number of cells = 422928
    Number of points = 449730
    Number of faces shared with processor 129 = 4229
    Number of faces shared with processor 131 = 4229
    Number of faces shared with processor 134 = 2100
    Number of faces shared with processor 138 = 20150
    Number of faces shared with processor 122 = 20150
    Number of processor patches = 5
    Number of processor faces = 50858
    Number of boundary faces = 2100

Processor 131
    Number of cells = 422900
    Number of points = 449702
    Number of faces shared with processor 130 = 4229
    Number of faces shared with processor 135 = 2100
    Number of faces shared with processor 139 = 20150
    Number of faces shared with processor 123 = 20150
    Number of processor patches = 4
    Number of processor faces = 46629
    Number of boundary faces = 6329

Processor 132
    Number of cells = 420000
    Number of points = 446622
    Number of faces shared with processor 128 = 2100
    Number of faces shared with processor 133 = 4200
    Number of faces shared with processor 140 = 20000
    Number of faces shared with processor 124 = 20000
    Number of processor patches = 4
    Number of processor faces = 46300
    Number of boundary faces = 6300

Processor 133
    Number of cells = 420000
    Number of points = 446622
    Number of faces shared with processor 129 = 2100
    Number of faces shared with processor 132 = 4200
    Number of faces shared with processor 134 = 4200
    Number of faces shared with processor 141 = 20000
    Number of faces shared with processor 125 = 20000
    Number of processor patches = 5
    Number of processor faces = 50500
    Number of boundary faces = 2100

Processor 134
    Number of cells = 420000
    Number of points = 446622
    Number of faces shared with processor 130 = 2100
    Number of faces shared with processor 133 = 4200
    Number of faces shared with processor 135 = 4200
    Number of faces shared with processor 142 = 20000
    Number of faces shared with processor 126 = 20000
    Number of processor patches = 5
    Number of processor faces = 50500
    Number of boundary faces = 2100

Processor 135
    Number of cells = 420000
    Number of points = 446622
    Number of faces shared with processor 131 = 2100
    Number of faces shared with processor 134 = 4200
    Number of faces shared with processor 143 = 20000
    Number of faces shared with processor 127 = 20000
    Number of processor patches = 4
    Number of processor faces = 46300
    Number of boundary faces = 6300

Processor 136
    Number of cells = 420000
    Number of points = 446622
    Number of faces shared with processor 128 = 20000
    Number of faces shared with processor 137 = 4200
    Number of faces shared with processor 140 = 2100
    Number of faces shared with processor 144 = 20000
    Number of processor patches = 4
    Number of processor faces = 46300
    Number of boundary faces = 6300

Processor 137
    Number of cells = 420870
    Number of points = 447580
    Number of faces shared with processor 129 = 20087
    Number of faces shared with processor 136 = 4200
    Number of faces shared with processor 138 = 4229
    Number of faces shared with processor 141 = 2100
    Number of faces shared with processor 145 = 20000
    Number of processor patches = 5
    Number of processor faces = 50616
    Number of boundary faces = 2158

Processor 138
    Number of cells = 423708
    Number of points = 450511
    Number of faces shared with processor 129 = 1
    Number of faces shared with processor 130 = 20150
    Number of faces shared with processor 137 = 4229
    Number of faces shared with processor 139 = 4238
    Number of faces shared with processor 142 = 2100
    Number of faces shared with processor 146 = 20125
    Number of processor patches = 6
    Number of processor faces = 50843
    Number of boundary faces = 2117

Processor 139
    Number of cells = 423779
    Number of points = 450590
    Number of faces shared with processor 131 = 20150
    Number of faces shared with processor 138 = 4238
    Number of faces shared with processor 143 = 2100
    Number of faces shared with processor 147 = 20150
    Number of processor patches = 4
    Number of processor faces = 46638
    Number of boundary faces = 6338

Processor 140
    Number of cells = 420064
    Number of points = 446710
    Number of faces shared with processor 132 = 20000
    Number of faces shared with processor 136 = 2100
    Number of faces shared with processor 141 = 4200
    Number of faces shared with processor 148 = 20023
    Number of processor patches = 4
    Number of processor faces = 46323
    Number of boundary faces = 6323

Processor 141
    Number of cells = 420000
    Number of points = 446622
    Number of faces shared with processor 133 = 20000
    Number of faces shared with processor 137 = 2100
    Number of faces shared with processor 140 = 4200
    Number of faces shared with processor 142 = 4200
    Number of faces shared with processor 149 = 20000
    Number of processor patches = 5
    Number of processor faces = 50500
    Number of boundary faces = 2100

Processor 142
    Number of cells = 420000
    Number of points = 446622
    Number of faces shared with processor 134 = 20000
    Number of faces shared with processor 138 = 2100
    Number of faces shared with processor 141 = 4200
    Number of faces shared with processor 143 = 4200
    Number of faces shared with processor 150 = 20000
    Number of processor patches = 5
    Number of processor faces = 50500
    Number of boundary faces = 2100

Processor 143
    Number of cells = 420000
    Number of points = 446622
    Number of faces shared with processor 135 = 20000
    Number of faces shared with processor 139 = 2100
    Number of faces shared with processor 142 = 4200
    Number of faces shared with processor 151 = 20000
    Number of processor patches = 4
    Number of processor faces = 46300
    Number of boundary faces = 6300

Processor 144
    Number of cells = 420000
    Number of points = 446622
    Number of faces shared with processor 136 = 20000
    Number of faces shared with processor 145 = 4200
    Number of faces shared with processor 148 = 2100
    Number of processor patches = 3
    Number of processor faces = 26300
    Number of boundary faces = 26300

Processor 145
    Number of cells = 420000
    Number of points = 446622
    Number of faces shared with processor 137 = 20000
    Number of faces shared with processor 144 = 4200
    Number of faces shared with processor 146 = 4200
    Number of faces shared with processor 149 = 2100
    Number of processor patches = 4
    Number of processor faces = 30500
    Number of boundary faces = 22100

Processor 146
    Number of cells = 421764
    Number of points = 448512
    Number of faces shared with processor 138 = 20125
    Number of faces shared with processor 145 = 4200
    Number of faces shared with processor 147 = 4242
    Number of faces shared with processor 150 = 2100
    Number of processor patches = 4
    Number of processor faces = 30667
    Number of boundary faces = 22183

Processor 147
    Number of cells = 426721
    Number of points = 453536
    Number of faces shared with processor 139 = 20150
    Number of faces shared with processor 146 = 4242
    Number of faces shared with processor 151 = 2100
    Number of processor patches = 3
    Number of processor faces = 26492
    Number of boundary faces = 26492

Processor 148
    Number of cells = 419936
    Number of points = 446558
    Number of faces shared with processor 140 = 20023
    Number of faces shared with processor 144 = 2100
    Number of faces shared with processor 149 = 4200
    Number of processor patches = 3
    Number of processor faces = 26323
    Number of boundary faces = 26277

Processor 149
    Number of cells = 420000
    Number of points = 446622
    Number of faces shared with processor 141 = 20000
    Number of faces shared with processor 145 = 2100
    Number of faces shared with processor 148 = 4200
    Number of faces shared with processor 150 = 4200
    Number of processor patches = 4
    Number of processor faces = 30500
    Number of boundary faces = 22100

Processor 150
    Number of cells = 420000
    Number of points = 446622
    Number of faces shared with processor 142 = 20000
    Number of faces shared with processor 146 = 2100
    Number of faces shared with processor 149 = 4200
    Number of faces shared with processor 151 = 4200
    Number of processor patches = 4
    Number of processor faces = 30500
    Number of boundary faces = 22100

Processor 151
    Number of cells = 420000
    Number of points = 446622
    Number of faces shared with processor 143 = 20000
    Number of faces shared with processor 147 = 2100
    Number of faces shared with processor 150 = 4200
    Number of processor patches = 3
    Number of processor faces = 26300
    Number of boundary faces = 26300

Number of processor faces = 3529368
Max number of cells = 426722 (1.34648% above average 421053)
Max number of processor patches = 8 (60.8466% above average 4.97368)
Max number of faces between processors = 50858 (9.51558% above average 46439.1)

Time = 0

Processor 0: field transfer
--> FOAM Warning : 
    From void* Foam::dlLibraryTable::openLibrary(const Foam::fileName&, bool)
    in file db/dynamicLibrary/dlLibraryTable/dlLibraryTable.C at line 188
    Could not load "libpetscFoam.so"
libpetscFoam.so: cannot open shared object file: No such file or directory
Processor 1: field transfer
--> FOAM Warning : 
    From void* Foam::dlLibraryTable::openLibrary(const Foam::fileName&, bool)
    in file db/dynamicLibrary/dlLibraryTable/dlLibraryTable.C at line 188
    Could not load "libpetscFoam.so"
libpetscFoam.so: cannot open shared object file: No such file or directory
Processor 2: field transfer
--> FOAM Warning : 
    From void* Foam::dlLibraryTable::openLibrary(const Foam::fileName&, bool)
    in file db/dynamicLibrary/dlLibraryTable/dlLibraryTable.C at line 188
    Could not load "libpetscFoam.so"
libpetscFoam.so: cannot open shared object file: No such file or directory
Processor 3: field transfer
--> FOAM Warning : 
    From void* Foam::dlLibraryTable::openLibrary(const Foam::fileName&, bool)
    in file db/dynamicLibrary/dlLibraryTable/dlLibraryTable.C at line 188
    Could not load "libpetscFoam.so"
libpetscFoam.so: cannot open shared object file: No such file or directory
Processor 4: field transfer
--> FOAM Warning : 
    From void* Foam::dlLibraryTable::openLibrary(const Foam::fileName&, bool)
    in file db/dynamicLibrary/dlLibraryTable/dlLibraryTable.C at line 188
    Could not load "libpetscFoam.so"
libpetscFoam.so: cannot open shared object file: No such file or directory
Processor 5: field transfer
--> FOAM Warning : 
    From void* Foam::dlLibraryTable::openLibrary(const Foam::fileName&, bool)
    in file db/dynamicLibrary/dlLibraryTable/dlLibraryTable.C at line 188
    Could not load "libpetscFoam.so"
libpetscFoam.so: cannot open shared object file: No such file or directory
Processor 6: field transfer
--> FOAM Warning : 
    From void* Foam::dlLibraryTable::openLibrary(const Foam::fileName&, bool)
    in file db/dynamicLibrary/dlLibraryTable/dlLibraryTable.C at line 188
    Could not load "libpetscFoam.so"
libpetscFoam.so: cannot open shared object file: No such file or directory
Processor 7: field transfer
--> FOAM Warning : 
    From void* Foam::dlLibraryTable::openLibrary(const Foam::fileName&, bool)
    in file db/dynamicLibrary/dlLibraryTable/dlLibraryTable.C at line 188
    Could not load "libpetscFoam.so"
libpetscFoam.so: cannot open shared object file: No such file or directory
Processor 8: field transfer
--> FOAM Warning : 
    From void* Foam::dlLibraryTable::openLibrary(const Foam::fileName&, bool)
    in file db/dynamicLibrary/dlLibraryTable/dlLibraryTable.C at line 188
    Could not load "libpetscFoam.so"
libpetscFoam.so: cannot open shared object file: No such file or directory
Processor 9: field transfer
--> FOAM Warning : 
    From void* Foam::dlLibraryTable::openLibrary(const Foam::fileName&, bool)
    in file db/dynamicLibrary/dlLibraryTable/dlLibraryTable.C at line 188
    Could not load "libpetscFoam.so"
libpetscFoam.so: cannot open shared object file: No such file or directory
Processor 10: field transfer
--> FOAM Warning : 
    From void* Foam::dlLibraryTable::openLibrary(const Foam::fileName&, bool)
    in file db/dynamicLibrary/dlLibraryTable/dlLibraryTable.C at line 188
    Could not load "libpetscFoam.so"
libpetscFoam.so: cannot open shared object file: No such file or directory
Processor 11: field transfer
--> FOAM Warning : 
    From void* Foam::dlLibraryTable::openLibrary(const Foam::fileName&, bool)
    in file db/dynamicLibrary/dlLibraryTable/dlLibraryTable.C at line 188
    Could not load "libpetscFoam.so"
libpetscFoam.so: cannot open shared object file: No such file or directory
Processor 12: field transfer
--> FOAM Warning : 
    From void* Foam::dlLibraryTable::openLibrary(const Foam::fileName&, bool)
    in file db/dynamicLibrary/dlLibraryTable/dlLibraryTable.C at line 188
    Could not load "libpetscFoam.so"
libpetscFoam.so: cannot open shared object file: No such file or directory
Processor 13: field transfer
--> FOAM Warning : 
    From void* Foam::dlLibraryTable::openLibrary(const Foam::fileName&, bool)
    in file db/dynamicLibrary/dlLibraryTable/dlLibraryTable.C at line 188
    Could not load "libpetscFoam.so"
libpetscFoam.so: cannot open shared object file: No such file or directory
Processor 14: field transfer
--> FOAM Warning : 
    From void* Foam::dlLibraryTable::openLibrary(const Foam::fileName&, bool)
    in file db/dynamicLibrary/dlLibraryTable/dlLibraryTable.C at line 188
    Could not load "libpetscFoam.so"
libpetscFoam.so: cannot open shared object file: No such file or directory
Processor 15: field transfer
--> FOAM Warning : 
    From void* Foam::dlLibraryTable::openLibrary(const Foam::fileName&, bool)
    in file db/dynamicLibrary/dlLibraryTable/dlLibraryTable.C at line 188
    Could not load "libpetscFoam.so"
libpetscFoam.so: cannot open shared object file: No such file or directory
Processor 16: field transfer
--> FOAM Warning : 
    From void* Foam::dlLibraryTable::openLibrary(const Foam::fileName&, bool)
    in file db/dynamicLibrary/dlLibraryTable/dlLibraryTable.C at line 188
    Could not load "libpetscFoam.so"
libpetscFoam.so: cannot open shared object file: No such file or directory
Processor 17: field transfer
--> FOAM Warning : 
    From void* Foam::dlLibraryTable::openLibrary(const Foam::fileName&, bool)
    in file db/dynamicLibrary/dlLibraryTable/dlLibraryTable.C at line 188
    Could not load "libpetscFoam.so"
libpetscFoam.so: cannot open shared object file: No such file or directory
Processor 18: field transfer
--> FOAM Warning : 
    From void* Foam::dlLibraryTable::openLibrary(const Foam::fileName&, bool)
    in file db/dynamicLibrary/dlLibraryTable/dlLibraryTable.C at line 188
    Could not load "libpetscFoam.so"
libpetscFoam.so: cannot open shared object file: No such file or directory
Processor 19: field transfer
--> FOAM Warning : 
    From void* Foam::dlLibraryTable::openLibrary(const Foam::fileName&, bool)
    in file db/dynamicLibrary/dlLibraryTable/dlLibraryTable.C at line 188
    Could not load "libpetscFoam.so"
libpetscFoam.so: cannot open shared object file: No such file or directory
Processor 20: field transfer
--> FOAM Warning : 
    From void* Foam::dlLibraryTable::openLibrary(const Foam::fileName&, bool)
    in file db/dynamicLibrary/dlLibraryTable/dlLibraryTable.C at line 188
    Could not load "libpetscFoam.so"
libpetscFoam.so: cannot open shared object file: No such file or directory
Processor 21: field transfer
--> FOAM Warning : 
    From void* Foam::dlLibraryTable::openLibrary(const Foam::fileName&, bool)
    in file db/dynamicLibrary/dlLibraryTable/dlLibraryTable.C at line 188
    Could not load "libpetscFoam.so"
libpetscFoam.so: cannot open shared object file: No such file or directory
Processor 22: field transfer
--> FOAM Warning : 
    From void* Foam::dlLibraryTable::openLibrary(const Foam::fileName&, bool)
    in file db/dynamicLibrary/dlLibraryTable/dlLibraryTable.C at line 188
    Could not load "libpetscFoam.so"
libpetscFoam.so: cannot open shared object file: No such file or directory
Processor 23: field transfer
--> FOAM Warning : 
    From void* Foam::dlLibraryTable::openLibrary(const Foam::fileName&, bool)
    in file db/dynamicLibrary/dlLibraryTable/dlLibraryTable.C at line 188
    Could not load "libpetscFoam.so"
libpetscFoam.so: cannot open shared object file: No such file or directory
Processor 24: field transfer
--> FOAM Warning : 
    From void* Foam::dlLibraryTable::openLibrary(const Foam::fileName&, bool)
    in file db/dynamicLibrary/dlLibraryTable/dlLibraryTable.C at line 188
    Could not load "libpetscFoam.so"
libpetscFoam.so: cannot open shared object file: No such file or directory
Processor 25: field transfer
--> FOAM Warning : 
    From void* Foam::dlLibraryTable::openLibrary(const Foam::fileName&, bool)
    in file db/dynamicLibrary/dlLibraryTable/dlLibraryTable.C at line 188
    Could not load "libpetscFoam.so"
libpetscFoam.so: cannot open shared object file: No such file or directory
Processor 26: field transfer
--> FOAM Warning : 
    From void* Foam::dlLibraryTable::openLibrary(const Foam::fileName&, bool)
    in file db/dynamicLibrary/dlLibraryTable/dlLibraryTable.C at line 188
    Could not load "libpetscFoam.so"
libpetscFoam.so: cannot open shared object file: No such file or directory
Processor 27: field transfer
--> FOAM Warning : 
    From void* Foam::dlLibraryTable::openLibrary(const Foam::fileName&, bool)
    in file db/dynamicLibrary/dlLibraryTable/dlLibraryTable.C at line 188
    Could not load "libpetscFoam.so"
libpetscFoam.so: cannot open shared object file: No such file or directory
Processor 28: field transfer
--> FOAM Warning : 
    From void* Foam::dlLibraryTable::openLibrary(const Foam::fileName&, bool)
    in file db/dynamicLibrary/dlLibraryTable/dlLibraryTable.C at line 188
    Could not load "libpetscFoam.so"
libpetscFoam.so: cannot open shared object file: No such file or directory
Processor 29: field transfer
--> FOAM Warning : 
    From void* Foam::dlLibraryTable::openLibrary(const Foam::fileName&, bool)
    in file db/dynamicLibrary/dlLibraryTable/dlLibraryTable.C at line 188
    Could not load "libpetscFoam.so"
libpetscFoam.so: cannot open shared object file: No such file or directory
Processor 30: field transfer
--> FOAM Warning : 
    From void* Foam::dlLibraryTable::openLibrary(const Foam::fileName&, bool)
    in file db/dynamicLibrary/dlLibraryTable/dlLibraryTable.C at line 188
    Could not load "libpetscFoam.so"
libpetscFoam.so: cannot open shared object file: No such file or directory
Processor 31: field transfer
--> FOAM Warning : 
    From void* Foam::dlLibraryTable::openLibrary(const Foam::fileName&, bool)
    in file db/dynamicLibrary/dlLibraryTable/dlLibraryTable.C at line 188
    Could not load "libpetscFoam.so"
libpetscFoam.so: cannot open shared object file: No such file or directory
Processor 32: field transfer
--> FOAM Warning : 
    From void* Foam::dlLibraryTable::openLibrary(const Foam::fileName&, bool)
[...]
    in file db/dynamicLibrary/dlLibraryTable/dlLibraryTable.C at line 188
    Could not load "libpetscFoam.so"
libpetscFoam.so: cannot open shared object file: No such file or directory
Processor 89: field transfer
--> FOAM Warning : 
    From void* Foam::dlLibraryTable::openLibrary(const Foam::fileName&, bool)
    in file db/dynamicLibrary/dlLibraryTable/dlLibraryTable.C at line 188
    Could not load "libpetscFoam.so"
libpetscFoam.so: cannot open shared object file: No such file or directory
Processor 90: field transfer
--> FOAM Warning : 
    From void* Foam::dlLibraryTable::openLibrary(const Foam::fileName&, bool)
    in file db/dynamicLibrary/dlLibraryTable/dlLibraryTable.C at line 188
    Could not load "libpetscFoam.so"
libpetscFoam.so: cannot open shared object file: No such file or directory
Processor 91: field transfer
--> FOAM Warning : 
    From void* Foam::dlLibraryTable::openLibrary(const Foam::fileName&, bool)
    in file db/dynamicLibrary/dlLibraryTable/dlLibraryTable.C at line 188
    Could not load "libpetscFoam.so"
libpetscFoam.so: cannot open shared object file: No such file or directory
Processor 92: field transfer
--> FOAM Warning : 
    From void* Foam::dlLibraryTable::openLibrary(const Foam::fileName&, bool)
    in file db/dynamicLibrary/dlLibraryTable/dlLibraryTable.C at line 188
    Could not load "libpetscFoam.so"
libpetscFoam.so: cannot open shared object file: No such file or directory
Processor 93: field transfer
--> FOAM Warning : 
    From void* Foam::dlLibraryTable::openLibrary(const Foam::fileName&, bool)
    in file db/dynamicLibrary/dlLibraryTable/dlLibraryTable.C at line 188
    Could not load "libpetscFoam.so"
libpetscFoam.so: cannot open shared object file: No such file or directory
Processor 94: field transfer
--> FOAM Warning : 
    From void* Foam::dlLibraryTable::openLibrary(const Foam::fileName&, bool)
    in file db/dynamicLibrary/dlLibraryTable/dlLibraryTable.C at line 188
    Could not load "libpetscFoam.so"
libpetscFoam.so: cannot open shared object file: No such file or directory
Processor 95: field transfer
--> FOAM Warning : 
    From void* Foam::dlLibraryTable::openLibrary(const Foam::fileName&, bool)
    in file db/dynamicLibrary/dlLibraryTable/dlLibraryTable.C at line 188
    Could not load "libpetscFoam.so"
libpetscFoam.so: cannot open shared object file: No such file or directory
Processor 96: field transfer
--> FOAM Warning : 
    From void* Foam::dlLibraryTable::openLibrary(const Foam::fileName&, bool)
    in file db/dynamicLibrary/dlLibraryTable/dlLibraryTable.C at line 188
    Could not load "libpetscFoam.so"
libpetscFoam.so: cannot open shared object file: No such file or directory
Processor 97: field transfer
--> FOAM Warning : 
    From void* Foam::dlLibraryTable::openLibrary(const Foam::fileName&, bool)
    in file db/dynamicLibrary/dlLibraryTable/dlLibraryTable.C at line 188
    Could not load "libpetscFoam.so"
libpetscFoam.so: cannot open shared object file: No such file or directory
Processor 98: field transfer
--> FOAM Warning : 
    From void* Foam::dlLibraryTable::openLibrary(const Foam::fileName&, bool)
    in file db/dynamicLibrary/dlLibraryTable/dlLibraryTable.C at line 188
    Could not load "libpetscFoam.so"
libpetscFoam.so: cannot open shared object file: No such file or directory
Processor 99: field transfer
--> FOAM Warning : 
    From void* Foam::dlLibraryTable::openLibrary(const Foam::fileName&, bool)
    in file db/dynamicLibrary/dlLibraryTable/dlLibraryTable.C at line 188
    Could not load "libpetscFoam.so"
libpetscFoam.so: cannot open shared object file: No such file or directory
Processor 100: field transfer
--> FOAM Warning : 
    From void* Foam::dlLibraryTable::openLibrary(const Foam::fileName&, bool)
    in file db/dynamicLibrary/dlLibraryTable/dlLibraryTable.C at line 188
    Could not load "libpetscFoam.so"
libpetscFoam.so: cannot open shared object file: No such file or directory
Processor 101: field transfer
--> FOAM Warning : 
    From void* Foam::dlLibraryTable::openLibrary(const Foam::fileName&, bool)
    in file db/dynamicLibrary/dlLibraryTable/dlLibraryTable.C at line 188
    Could not load "libpetscFoam.so"
libpetscFoam.so: cannot open shared object file: No such file or directory
Processor 102: field transfer
--> FOAM Warning : 
    From void* Foam::dlLibraryTable::openLibrary(const Foam::fileName&, bool)
    in file db/dynamicLibrary/dlLibraryTable/dlLibraryTable.C at line 188
    Could not load "libpetscFoam.so"
libpetscFoam.so: cannot open shared object file: No such file or directory
Processor 103: field transfer
--> FOAM Warning : 
    From void* Foam::dlLibraryTable::openLibrary(const Foam::fileName&, bool)
    in file db/dynamicLibrary/dlLibraryTable/dlLibraryTable.C at line 188
    Could not load "libpetscFoam.so"
libpetscFoam.so: cannot open shared object file: No such file or directory
Processor 104: field transfer
--> FOAM Warning : 
    From void* Foam::dlLibraryTable::openLibrary(const Foam::fileName&, bool)
    in file db/dynamicLibrary/dlLibraryTable/dlLibraryTable.C at line 188
    Could not load "libpetscFoam.so"
libpetscFoam.so: cannot open shared object file: No such file or directory
Processor 105: field transfer
--> FOAM Warning : 
    From void* Foam::dlLibraryTable::openLibrary(const Foam::fileName&, bool)
    in file db/dynamicLibrary/dlLibraryTable/dlLibraryTable.C at line 188
    Could not load "libpetscFoam.so"
libpetscFoam.so: cannot open shared object file: No such file or directory
Processor 106: field transfer
--> FOAM Warning : 
    From void* Foam::dlLibraryTable::openLibrary(const Foam::fileName&, bool)
    in file db/dynamicLibrary/dlLibraryTable/dlLibraryTable.C at line 188
    Could not load "libpetscFoam.so"
libpetscFoam.so: cannot open shared object file: No such file or directory
Processor 107: field transfer
--> FOAM Warning : 
    From void* Foam::dlLibraryTable::openLibrary(const Foam::fileName&, bool)
    in file db/dynamicLibrary/dlLibraryTable/dlLibraryTable.C at line 188
    Could not load "libpetscFoam.so"
libpetscFoam.so: cannot open shared object file: No such file or directory
Processor 108: field transfer
--> FOAM Warning : 
    From void* Foam::dlLibraryTable::openLibrary(const Foam::fileName&, bool)
    in file db/dynamicLibrary/dlLibraryTable/dlLibraryTable.C at line 188
    Could not load "libpetscFoam.so"
libpetscFoam.so: cannot open shared object file: No such file or directory
Processor 109: field transfer
--> FOAM Warning : 
    From void* Foam::dlLibraryTable::openLibrary(const Foam::fileName&, bool)
    in file db/dynamicLibrary/dlLibraryTable/dlLibraryTable.C at line 188
    Could not load "libpetscFoam.so"
libpetscFoam.so: cannot open shared object file: No such file or directory
Processor 110: field transfer
--> FOAM Warning : 
    From void* Foam::dlLibraryTable::openLibrary(const Foam::fileName&, bool)
    in file db/dynamicLibrary/dlLibraryTable/dlLibraryTable.C at line 188
    Could not load "libpetscFoam.so"
libpetscFoam.so: cannot open shared object file: No such file or directory
Processor 111: field transfer
--> FOAM Warning : 
    From void* Foam::dlLibraryTable::openLibrary(const Foam::fileName&, bool)
    in file db/dynamicLibrary/dlLibraryTable/dlLibraryTable.C at line 188
    Could not load "libpetscFoam.so"
libpetscFoam.so: cannot open shared object file: No such file or directory
Processor 112: field transfer
--> FOAM Warning : 
    From void* Foam::dlLibraryTable::openLibrary(const Foam::fileName&, bool)
    in file db/dynamicLibrary/dlLibraryTable/dlLibraryTable.C at line 188
    Could not load "libpetscFoam.so"
libpetscFoam.so: cannot open shared object file: No such file or directory
Processor 113: field transfer
--> FOAM Warning : 
    From void* Foam::dlLibraryTable::openLibrary(const Foam::fileName&, bool)
    in file db/dynamicLibrary/dlLibraryTable/dlLibraryTable.C at line 188
    Could not load "libpetscFoam.so"
libpetscFoam.so: cannot open shared object file: No such file or directory
Processor 114: field transfer
--> FOAM Warning : 
    From void* Foam::dlLibraryTable::openLibrary(const Foam::fileName&, bool)
    in file db/dynamicLibrary/dlLibraryTable/dlLibraryTable.C at line 188
    Could not load "libpetscFoam.so"
libpetscFoam.so: cannot open shared object file: No such file or directory
Processor 115: field transfer
--> FOAM Warning : 
    From void* Foam::dlLibraryTable::openLibrary(const Foam::fileName&, bool)
    in file db/dynamicLibrary/dlLibraryTable/dlLibraryTable.C at line 188
    Could not load "libpetscFoam.so"
libpetscFoam.so: cannot open shared object file: No such file or directory
Processor 116: field transfer
--> FOAM Warning : 
    From void* Foam::dlLibraryTable::openLibrary(const Foam::fileName&, bool)
    in file db/dynamicLibrary/dlLibraryTable/dlLibraryTable.C at line 188
    Could not load "libpetscFoam.so"
libpetscFoam.so: cannot open shared object file: No such file or directory
Processor 117: field transfer
--> FOAM Warning : 
    From void* Foam::dlLibraryTable::openLibrary(const Foam::fileName&, bool)
    in file db/dynamicLibrary/dlLibraryTable/dlLibraryTable.C at line 188
    Could not load "libpetscFoam.so"
libpetscFoam.so: cannot open shared object file: No such file or directory
Processor 118: field transfer
--> FOAM Warning : 
    From void* Foam::dlLibraryTable::openLibrary(const Foam::fileName&, bool)
    in file db/dynamicLibrary/dlLibraryTable/dlLibraryTable.C at line 188
    Could not load "libpetscFoam.so"
libpetscFoam.so: cannot open shared object file: No such file or directory
Processor 119: field transfer
--> FOAM Warning : 
    From void* Foam::dlLibraryTable::openLibrary(const Foam::fileName&, bool)
    in file db/dynamicLibrary/dlLibraryTable/dlLibraryTable.C at line 188
    Could not load "libpetscFoam.so"
libpetscFoam.so: cannot open shared object file: No such file or directory
Processor 120: field transfer
--> FOAM Warning : 
    From void* Foam::dlLibraryTable::openLibrary(const Foam::fileName&, bool)
    in file db/dynamicLibrary/dlLibraryTable/dlLibraryTable.C at line 188
    Could not load "libpetscFoam.so"
libpetscFoam.so: cannot open shared object file: No such file or directory
Processor 121: field transfer
--> FOAM Warning : 
    From void* Foam::dlLibraryTable::openLibrary(const Foam::fileName&, bool)
    in file db/dynamicLibrary/dlLibraryTable/dlLibraryTable.C at line 188
    Could not load "libpetscFoam.so"
libpetscFoam.so: cannot open shared object file: No such file or directory
Processor 122: field transfer
--> FOAM Warning : 
    From void* Foam::dlLibraryTable::openLibrary(const Foam::fileName&, bool)
    in file db/dynamicLibrary/dlLibraryTable/dlLibraryTable.C at line 188
    Could not load "libpetscFoam.so"
libpetscFoam.so: cannot open shared object file: No such file or directory
Processor 123: field transfer
--> FOAM Warning : 
    From void* Foam::dlLibraryTable::openLibrary(const Foam::fileName&, bool)
    in file db/dynamicLibrary/dlLibraryTable/dlLibraryTable.C at line 188
    Could not load "libpetscFoam.so"
libpetscFoam.so: cannot open shared object file: No such file or directory
Processor 124: field transfer
--> FOAM Warning : 
    From void* Foam::dlLibraryTable::openLibrary(const Foam::fileName&, bool)
    in file db/dynamicLibrary/dlLibraryTable/dlLibraryTable.C at line 188
    Could not load "libpetscFoam.so"
libpetscFoam.so: cannot open shared object file: No such file or directory
Processor 125: field transfer
--> FOAM Warning : 
    From void* Foam::dlLibraryTable::openLibrary(const Foam::fileName&, bool)
    in file db/dynamicLibrary/dlLibraryTable/dlLibraryTable.C at line 188
    Could not load "libpetscFoam.so"
libpetscFoam.so: cannot open shared object file: No such file or directory
Processor 126: field transfer
--> FOAM Warning : 
    From void* Foam::dlLibraryTable::openLibrary(const Foam::fileName&, bool)
    in file db/dynamicLibrary/dlLibraryTable/dlLibraryTable.C at line 188
    Could not load "libpetscFoam.so"
libpetscFoam.so: cannot open shared object file: No such file or directory
Processor 127: field transfer
--> FOAM Warning : 
    From void* Foam::dlLibraryTable::openLibrary(const Foam::fileName&, bool)
    in file db/dynamicLibrary/dlLibraryTable/dlLibraryTable.C at line 188
    Could not load "libpetscFoam.so"
libpetscFoam.so: cannot open shared object file: No such file or directory
Processor 128: field transfer
--> FOAM Warning : 
    From void* Foam::dlLibraryTable::openLibrary(const Foam::fileName&, bool)
    in file db/dynamicLibrary/dlLibraryTable/dlLibraryTable.C at line 188
    Could not load "libpetscFoam.so"
libpetscFoam.so: cannot open shared object file: No such file or directory
Processor 129: field transfer
--> FOAM Warning : 
    From void* Foam::dlLibraryTable::openLibrary(const Foam::fileName&, bool)
    in file db/dynamicLibrary/dlLibraryTable/dlLibraryTable.C at line 188
    Could not load "libpetscFoam.so"
libpetscFoam.so: cannot open shared object file: No such file or directory
Processor 130: field transfer
--> FOAM Warning : 
    From void* Foam::dlLibraryTable::openLibrary(const Foam::fileName&, bool)
    in file db/dynamicLibrary/dlLibraryTable/dlLibraryTable.C at line 188
    Could not load "libpetscFoam.so"
libpetscFoam.so: cannot open shared object file: No such file or directory
Processor 131: field transfer
--> FOAM Warning : 
    From void* Foam::dlLibraryTable::openLibrary(const Foam::fileName&, bool)
    in file db/dynamicLibrary/dlLibraryTable/dlLibraryTable.C at line 188
    Could not load "libpetscFoam.so"
libpetscFoam.so: cannot open shared object file: No such file or directory
Processor 132: field transfer
--> FOAM Warning : 
    From void* Foam::dlLibraryTable::openLibrary(const Foam::fileName&, bool)
    in file db/dynamicLibrary/dlLibraryTable/dlLibraryTable.C at line 188
    Could not load "libpetscFoam.so"
libpetscFoam.so: cannot open shared object file: No such file or directory
Processor 133: field transfer
--> FOAM Warning : 
    From void* Foam::dlLibraryTable::openLibrary(const Foam::fileName&, bool)
    in file db/dynamicLibrary/dlLibraryTable/dlLibraryTable.C at line 188
    Could not load "libpetscFoam.so"
libpetscFoam.so: cannot open shared object file: No such file or directory
Processor 134: field transfer
--> FOAM Warning : 
    From void* Foam::dlLibraryTable::openLibrary(const Foam::fileName&, bool)
    in file db/dynamicLibrary/dlLibraryTable/dlLibraryTable.C at line 188
    Could not load "libpetscFoam.so"
libpetscFoam.so: cannot open shared object file: No such file or directory
Processor 135: field transfer
--> FOAM Warning : 
    From void* Foam::dlLibraryTable::openLibrary(const Foam::fileName&, bool)
    in file db/dynamicLibrary/dlLibraryTable/dlLibraryTable.C at line 188
    Could not load "libpetscFoam.so"
libpetscFoam.so: cannot open shared object file: No such file or directory
Processor 136: field transfer
--> FOAM Warning : 
    From void* Foam::dlLibraryTable::openLibrary(const Foam::fileName&, bool)
    in file db/dynamicLibrary/dlLibraryTable/dlLibraryTable.C at line 188
    Could not load "libpetscFoam.so"
libpetscFoam.so: cannot open shared object file: No such file or directory
Processor 137: field transfer
--> FOAM Warning : 
    From void* Foam::dlLibraryTable::openLibrary(const Foam::fileName&, bool)
    in file db/dynamicLibrary/dlLibraryTable/dlLibraryTable.C at line 188
    Could not load "libpetscFoam.so"
libpetscFoam.so: cannot open shared object file: No such file or directory
Processor 138: field transfer
--> FOAM Warning : 
    From void* Foam::dlLibraryTable::openLibrary(const Foam::fileName&, bool)
    in file db/dynamicLibrary/dlLibraryTable/dlLibraryTable.C at line 188
    Could not load "libpetscFoam.so"
libpetscFoam.so: cannot open shared object file: No such file or directory
Processor 139: field transfer
--> FOAM Warning : 
    From void* Foam::dlLibraryTable::openLibrary(const Foam::fileName&, bool)
    in file db/dynamicLibrary/dlLibraryTable/dlLibraryTable.C at line 188
    Could not load "libpetscFoam.so"
libpetscFoam.so: cannot open shared object file: No such file or directory
Processor 140: field transfer
--> FOAM Warning : 
    From void* Foam::dlLibraryTable::openLibrary(const Foam::fileName&, bool)
    in file db/dynamicLibrary/dlLibraryTable/dlLibraryTable.C at line 188
    Could not load "libpetscFoam.so"
libpetscFoam.so: cannot open shared object file: No such file or directory
Processor 141: field transfer
--> FOAM Warning : 
    From void* Foam::dlLibraryTable::openLibrary(const Foam::fileName&, bool)
    in file db/dynamicLibrary/dlLibraryTable/dlLibraryTable.C at line 188
    Could not load "libpetscFoam.so"
libpetscFoam.so: cannot open shared object file: No such file or directory
Processor 142: field transfer
--> FOAM Warning : 
    From void* Foam::dlLibraryTable::openLibrary(const Foam::fileName&, bool)
    in file db/dynamicLibrary/dlLibraryTable/dlLibraryTable.C at line 188
    Could not load "libpetscFoam.so"
libpetscFoam.so: cannot open shared object file: No such file or directory
Processor 143: field transfer
--> FOAM Warning : 
    From void* Foam::dlLibraryTable::openLibrary(const Foam::fileName&, bool)
    in file db/dynamicLibrary/dlLibraryTable/dlLibraryTable.C at line 188
    Could not load "libpetscFoam.so"
libpetscFoam.so: cannot open shared object file: No such file or directory
Processor 144: field transfer
--> FOAM Warning : 
    From void* Foam::dlLibraryTable::openLibrary(const Foam::fileName&, bool)
    in file db/dynamicLibrary/dlLibraryTable/dlLibraryTable.C at line 188
    Could not load "libpetscFoam.so"
libpetscFoam.so: cannot open shared object file: No such file or directory
Processor 145: field transfer
--> FOAM Warning : 
    From void* Foam::dlLibraryTable::openLibrary(const Foam::fileName&, bool)
    in file db/dynamicLibrary/dlLibraryTable/dlLibraryTable.C at line 188
    Could not load "libpetscFoam.so"
libpetscFoam.so: cannot open shared object file: No such file or directory
Processor 146: field transfer
--> FOAM Warning : 
    From void* Foam::dlLibraryTable::openLibrary(const Foam::fileName&, bool)
    in file db/dynamicLibrary/dlLibraryTable/dlLibraryTable.C at line 188
    Could not load "libpetscFoam.so"
libpetscFoam.so: cannot open shared object file: No such file or directory
Processor 147: field transfer
--> FOAM Warning : 
    From void* Foam::dlLibraryTable::openLibrary(const Foam::fileName&, bool)
    in file db/dynamicLibrary/dlLibraryTable/dlLibraryTable.C at line 188
    Could not load "libpetscFoam.so"
libpetscFoam.so: cannot open shared object file: No such file or directory
Processor 148: field transfer
--> FOAM Warning : 
    From void* Foam::dlLibraryTable::openLibrary(const Foam::fileName&, bool)
    in file db/dynamicLibrary/dlLibraryTable/dlLibraryTable.C at line 188
    Could not load "libpetscFoam.so"
libpetscFoam.so: cannot open shared object file: No such file or directory
Processor 149: field transfer
--> FOAM Warning : 
    From void* Foam::dlLibraryTable::openLibrary(const Foam::fileName&, bool)
    in file db/dynamicLibrary/dlLibraryTable/dlLibraryTable.C at line 188
    Could not load "libpetscFoam.so"
libpetscFoam.so: cannot open shared object file: No such file or directory
Processor 150: field transfer
--> FOAM Warning : 
    From void* Foam::dlLibraryTable::openLibrary(const Foam::fileName&, bool)
    in file db/dynamicLibrary/dlLibraryTable/dlLibraryTable.C at line 188
    Could not load "libpetscFoam.so"
libpetscFoam.so: cannot open shared object file: No such file or directory
Processor 151: field transfer
--> FOAM Warning : 
    From void* Foam::dlLibraryTable::openLibrary(const Foam::fileName&, bool)
    in file db/dynamicLibrary/dlLibraryTable/dlLibraryTable.C at line 188
    Could not load "libpetscFoam.so"
libpetscFoam.so: cannot open shared object file: No such file or directory

End

