/*---------------------------------------------------------------------------*\
| =========                 |                                                 |
| \\      /  F ield         | OpenFOAM: The Open Source CFD Toolbox           |
|  \\    /   O peration     | Version:  2306                                  |
|   \\  /    A nd           | Website:  www.openfoam.com                      |
|    \\/     M anipulation  |                                                 |
\*---------------------------------------------------------------------------*/
Build  : a6e826bd55-20230630 OPENFOAM=2306 version=v2306
Arch   : "LSB;label=32;scalar=64"
Exec   : icoFoam -parallel -case /tmp/lidDrivenCavity3D/workspace/2c9ef83b06721cca35a31772c11bf815/case
Date   : Dec 05 2023
Time   : 16:12:46
Host   : nla-gpu2.ianm.kit.edu
PID    : 3921906
I/O    : uncollated
Case   : /tmp/lidDrivenCavity3D/workspace/2c9ef83b06721cca35a31772c11bf815/case
nProcs : 8
Hosts  :
(
    (nla-gpu2.ianm.kit.edu 8)
)
Pstream initialized with:
    floatTransfer      : false
    nProcsSimpleSum    : 0
    nonBlockingExchange: 0 (tuning: 0)
    exchange algorithm : -1
    commsType          : nonBlocking
    polling iterations : 0
trapFpe: Floating point exception trapping enabled (FOAM_SIGFPE).
fileModificationChecking : Monitoring run-time modified files using timeStampMaster (fileModificationSkew 5, maxFileModificationPolls 20)
allowSystemOperations : Allowing user-supplied system call operations

// * * * * * * * * * * * * * * * * * * * * * * * * * * * * * * * * * * * * * //
Create time

--> FOAM Warning : 
    From void* Foam::dlLibraryTable::openLibrary(const Foam::fileName&, bool)
    in file db/dynamicLibrary/dlLibraryTable/dlLibraryTable.C at line 188
    Could not load "libpetscFoam.so"
libpetscFoam.so: cannot open shared object file: No such file or directory
Create mesh for time = 0


PISO: Operating solver in PISO mode

Reading transportProperties

Reading field p

Reading field U

Reading/calculating face flux field phi


Starting time loop

Time = 0.0005

Courant Number mean: 8.62851e-18 max: 8.67362e-15
momentum setup 14.176 [ms]
DILUPBiCGStab:  Solving for Ux, Initial residual = 1, Final residual = 0.0025649, No Iterations 5
DILUPBiCGStab:  Solving for Uy:  solution singularity
DILUPBiCGStab:  Solving for Uz:  solution singularity
piso setup 12.153 [ms]
 correctNonOrthogonal 
 setRef 
 startSolve 
nonePCG:  Solving for p, Initial residual = 1, Final residual = 9.98865e-05, No Iterations 792
piso step 1097.65 [ms]
 contErrors 
time step continuity errors : sum local = 2.14472e-08, global = -1.22045e-21, cumulative = -1.22045e-21
piso setup 14.564 [ms]
 correctNonOrthogonal 
 setRef 
 startSolve 
nonePCG:  Solving for p, Initial residual = 0.731052, Final residual = 9.82441e-05, No Iterations 781
piso step 1069.49 [ms]
 contErrors 
time step continuity errors : sum local = 2.78561e-08, global = -2.91266e-21, cumulative = -4.13311e-21
ExecutionTime = 2.57 s  ClockTime = 2 s

Time = 0.001

Courant Number mean: 0.0215341 max: 0.377097
momentum setup 10.649 [ms]
DILUPBiCGStab:  Solving for Ux, Initial residual = 0.150351, Final residual = 0.00113128, No Iterations 5
DILUPBiCGStab:  Solving for Uy, Initial residual = 0.368162, Final residual = 0.00224404, No Iterations 5
DILUPBiCGStab:  Solving for Uz, Initial residual = 0.988636, Final residual = 0.00605697, No Iterations 5
piso setup 12.523 [ms]
 correctNonOrthogonal 
 setRef 
 startSolve 
nonePCG:  Solving for p, Initial residual = 0.690613, Final residual = 9.94632e-05, No Iterations 775
piso step 1068.9 [ms]
 contErrors 
time step continuity errors : sum local = 3.15587e-08, global = -8.05085e-21, cumulative = -1.2184e-20
piso setup 14.377 [ms]
 correctNonOrthogonal 
 setRef 
 startSolve 
nonePCG:  Solving for p, Initial residual = 0.619789, Final residual = 9.3759e-05, No Iterations 774
piso step 1058.72 [ms]
 contErrors 
time step continuity errors : sum local = 3.0342e-08, global = -1.14022e-22, cumulative = -1.2298e-20
ExecutionTime = 4.86 s  ClockTime = 5 s

Time = 0.0015

Courant Number mean: 0.0324926 max: 0.441243
momentum setup 10.397 [ms]
DILUPBiCGStab:  Solving for Ux, Initial residual = 0.0531066, Final residual = 0.000326426, No Iterations 5
DILUPBiCGStab:  Solving for Uy, Initial residual = 0.124681, Final residual = 0.000558081, No Iterations 5
DILUPBiCGStab:  Solving for Uz, Initial residual = 0.575612, Final residual = 0.00312185, No Iterations 5
piso setup 11.799 [ms]
 correctNonOrthogonal 
 setRef 
 startSolve 
nonePCG:  Solving for p, Initial residual = 0.632554, Final residual = 9.52719e-05, No Iterations 768
piso step 1064.07 [ms]
 contErrors 
time step continuity errors : sum local = 2.18252e-08, global = -3.36926e-21, cumulative = -1.56672e-20
piso setup 12.551 [ms]
 correctNonOrthogonal 
 setRef 
 startSolve 
nonePCG:  Solving for p, Initial residual = 0.579979, Final residual = 9.59998e-05, No Iterations 766
piso step 1057.81 [ms]
 contErrors 
time step continuity errors : sum local = 2.14087e-08, global = 7.17025e-21, cumulative = -8.49699e-21
ExecutionTime = 7.12 s  ClockTime = 7 s

Time = 0.002

Courant Number mean: 0.0388942 max: 0.452946
momentum setup 9.499 [ms]
DILUPBiCGStab:  Solving for Ux, Initial residual = 0.0318966, Final residual = 0.000167513, No Iterations 5
DILUPBiCGStab:  Solving for Uy, Initial residual = 0.0813679, Final residual = 0.000384959, No Iterations 5
DILUPBiCGStab:  Solving for Uz, Initial residual = 0.273903, Final residual = 0.00118152, No Iterations 5
piso setup 11.899 [ms]
 correctNonOrthogonal 
 setRef 
 startSolve 
nonePCG:  Solving for p, Initial residual = 0.412426, Final residual = 9.98162e-05, No Iterations 761
piso step 1038.33 [ms]
 contErrors 
time step continuity errors : sum local = 1.95194e-08, global = 6.8444e-22, cumulative = -7.81255e-21
piso setup 13.26 [ms]
 correctNonOrthogonal 
 setRef 
 startSolve 
nonePCG:  Solving for p, Initial residual = 0.350545, Final residual = 9.96381e-05, No Iterations 757
piso step 1036.01 [ms]
 contErrors 
time step continuity errors : sum local = 1.96793e-08, global = -1.95625e-22, cumulative = -8.00818e-21
ExecutionTime = 9.35 s  ClockTime = 9 s

Time = 0.0025

Courant Number mean: 0.043947 max: 0.459623
momentum setup 9.699 [ms]
DILUPBiCGStab:  Solving for Ux, Initial residual = 0.0235042, Final residual = 0.000104802, No Iterations 5
DILUPBiCGStab:  Solving for Uy, Initial residual = 0.0515221, Final residual = 0.00023504, No Iterations 5
DILUPBiCGStab:  Solving for Uz, Initial residual = 0.0979986, Final residual = 0.000478144, No Iterations 5
piso setup 11.695 [ms]
 correctNonOrthogonal 
 setRef 
 startSolve 
nonePCG:  Solving for p, Initial residual = 0.314826, Final residual = 9.76159e-05, No Iterations 728
piso step 1000.88 [ms]
 contErrors 
time step continuity errors : sum local = 1.57645e-08, global = 2.16295e-23, cumulative = -7.98655e-21
piso setup 11.374 [ms]
 correctNonOrthogonal 
 setRef 
 startSolve 
nonePCG:  Solving for p, Initial residual = 0.269326, Final residual = 9.9824e-05, No Iterations 724
piso step 999.931 [ms]
 contErrors 
time step continuity errors : sum local = 1.60019e-08, global = -9.27099e-21, cumulative = -1.72575e-20
ExecutionTime = 11.49 s  ClockTime = 11 s

Time = 0.003

Courant Number mean: 0.047987 max: 0.463866
momentum setup 9.187 [ms]
DILUPBiCGStab:  Solving for Ux, Initial residual = 0.0178878, Final residual = 7.93736e-05, No Iterations 5
DILUPBiCGStab:  Solving for Uy, Initial residual = 0.0401304, Final residual = 0.000115985, No Iterations 5
DILUPBiCGStab:  Solving for Uz, Initial residual = 0.0851911, Final residual = 0.000399696, No Iterations 5
piso setup 12.657 [ms]
 correctNonOrthogonal 
 setRef 
 startSolve 
nonePCG:  Solving for p, Initial residual = 0.19689, Final residual = 9.86569e-05, No Iterations 347
piso step 478.925 [ms]
 contErrors 
time step continuity errors : sum local = 1.73621e-08, global = -2.27661e-21, cumulative = -1.95341e-20
piso setup 11.078 [ms]
 correctNonOrthogonal 
 setRef 
 startSolve 
nonePCG:  Solving for p, Initial residual = 0.163669, Final residual = 9.93628e-05, No Iterations 344
piso step 478.121 [ms]
 contErrors 
time step continuity errors : sum local = 1.61007e-08, global = -3.97336e-21, cumulative = -2.35075e-20
ExecutionTime = 12.59 s  ClockTime = 12 s

Time = 0.0035

Courant Number mean: 0.051396 max: 0.466746
momentum setup 9.999 [ms]
DILUPBiCGStab:  Solving for Ux, Initial residual = 0.0146272, Final residual = 5.75161e-05, No Iterations 5
DILUPBiCGStab:  Solving for Uy, Initial residual = 0.0317932, Final residual = 9.94328e-05, No Iterations 5
DILUPBiCGStab:  Solving for Uz, Initial residual = 0.0575224, Final residual = 0.000249865, No Iterations 5
piso setup 11.817 [ms]
 correctNonOrthogonal 
 setRef 
 startSolve 
nonePCG:  Solving for p, Initial residual = 0.139698, Final residual = 9.89467e-05, No Iterations 334
piso step 466.981 [ms]
 contErrors 
time step continuity errors : sum local = 1.48755e-08, global = 2.96927e-21, cumulative = -2.05382e-20
piso setup 11.11 [ms]
 correctNonOrthogonal 
 setRef 
 startSolve 
nonePCG:  Solving for p, Initial residual = 0.116789, Final residual = 9.77715e-05, No Iterations 329
piso step 451.146 [ms]
 contErrors 
time step continuity errors : sum local = 1.4481e-08, global = -3.74506e-22, cumulative = -2.09127e-20
ExecutionTime = 13.65 s  ClockTime = 13 s

Time = 0.004

Courant Number mean: 0.0543347 max: 0.468955
momentum setup 8.566 [ms]
DILUPBiCGStab:  Solving for Ux, Initial residual = 0.0122808, Final residual = 4.51269e-05, No Iterations 5
DILUPBiCGStab:  Solving for Uy, Initial residual = 0.0265199, Final residual = 6.38751e-05, No Iterations 5
DILUPBiCGStab:  Solving for Uz, Initial residual = 0.0511913, Final residual = 0.000170451, No Iterations 5
piso setup 11.792 [ms]
 correctNonOrthogonal 
 setRef 
 startSolve 
nonePCG:  Solving for p, Initial residual = 0.0909219, Final residual = 9.94679e-05, No Iterations 345
piso step 478.925 [ms]
 contErrors 
time step continuity errors : sum local = 1.68399e-08, global = -1.22774e-21, cumulative = -2.21405e-20
piso setup 11.053 [ms]
 correctNonOrthogonal 
 setRef 
 startSolve 
nonePCG:  Solving for p, Initial residual = 0.0751904, Final residual = 9.67724e-05, No Iterations 321
piso step 447.635 [ms]
 contErrors 
time step continuity errors : sum local = 1.48831e-08, global = -7.2035e-21, cumulative = -2.9344e-20
ExecutionTime = 14.73 s  ClockTime = 15 s

Time = 0.0045

Courant Number mean: 0.0569118 max: 0.470657
momentum setup 9.319 [ms]
DILUPBiCGStab:  Solving for Ux, Initial residual = 0.0105233, Final residual = 3.57193e-05, No Iterations 5
DILUPBiCGStab:  Solving for Uy, Initial residual = 0.0227016, Final residual = 5.88618e-05, No Iterations 5
DILUPBiCGStab:  Solving for Uz, Initial residual = 0.0430332, Final residual = 0.000132895, No Iterations 5
piso setup 11.955 [ms]
 correctNonOrthogonal 
 setRef 
 startSolve 
nonePCG:  Solving for p, Initial residual = 0.066987, Final residual = 9.75812e-05, No Iterations 335
piso step 467.125 [ms]
 contErrors 
time step continuity errors : sum local = 1.51775e-08, global = -1.11401e-21, cumulative = -3.0458e-20
piso setup 11.163 [ms]
 correctNonOrthogonal 
 setRef 
 startSolve 
nonePCG:  Solving for p, Initial residual = 0.0558661, Final residual = 9.80407e-05, No Iterations 323
piso step 446.997 [ms]
 contErrors 
time step continuity errors : sum local = 1.42018e-08, global = 5.36967e-21, cumulative = -2.50883e-20
ExecutionTime = 15.79 s  ClockTime = 16 s

Time = 0.005

Courant Number mean: 0.0592067 max: 0.472051
momentum setup 8.447 [ms]
DILUPBiCGStab:  Solving for Ux, Initial residual = 0.00922205, Final residual = 3.00791e-05, No Iterations 5
DILUPBiCGStab:  Solving for Uy, Initial residual = 0.0197292, Final residual = 4.41646e-05, No Iterations 5
DILUPBiCGStab:  Solving for Uz, Initial residual = 0.038906, Final residual = 0.000108035, No Iterations 5
piso setup 11.653 [ms]
 correctNonOrthogonal 
 setRef 
 startSolve 
nonePCG:  Solving for p, Initial residual = 0.0447313, Final residual = 9.98141e-05, No Iterations 697
piso step 961.201 [ms]
 contErrors 
time step continuity errors : sum local = 1.41201e-08, global = 1.09384e-20, cumulative = -1.415e-20
piso setup 13.379 [ms]
 correctNonOrthogonal 
 setRef 
 startSolve 
nonePCG:  Solving for p, Initial residual = 0.0377469, Final residual = 9.88576e-05, No Iterations 694
piso step 936.568 [ms]
 contErrors 
time step continuity errors : sum local = 1.39912e-08, global = 1.12106e-21, cumulative = -1.30289e-20
ExecutionTime = 17.82 s  ClockTime = 18 s

Time = 0.0055

Courant Number mean: 0.0612663 max: 0.473199
momentum setup 8.877 [ms]
DILUPBiCGStab:  Solving for Ux, Initial residual = 0.00813993, Final residual = 2.52042e-05, No Iterations 5
DILUPBiCGStab:  Solving for Uy, Initial residual = 0.0174515, Final residual = 3.9344e-05, No Iterations 5
DILUPBiCGStab:  Solving for Uz, Initial residual = 0.0339066, Final residual = 8.2666e-05, No Iterations 5
piso setup 11.678 [ms]
 correctNonOrthogonal 
 setRef 
 startSolve 
nonePCG:  Solving for p, Initial residual = 0.0351611, Final residual = 9.85948e-05, No Iterations 313
piso step 436.352 [ms]
 contErrors 
time step continuity errors : sum local = 1.42806e-08, global = 1.24056e-21, cumulative = -1.17884e-20
piso setup 11.081 [ms]
 correctNonOrthogonal 
 setRef 
 startSolve 
nonePCG:  Solving for p, Initial residual = 0.029869, Final residual = 9.67712e-05, No Iterations 311
piso step 426.744 [ms]
 contErrors 
time step continuity errors : sum local = 1.38268e-08, global = 5.37053e-21, cumulative = -6.41782e-21
ExecutionTime = 18.83 s  ClockTime = 19 s

Time = 0.006

Courant Number mean: 0.0631375 max: 0.474175
momentum setup 8.611 [ms]
DILUPBiCGStab:  Solving for Ux, Initial residual = 0.00728456, Final residual = 2.20608e-05, No Iterations 5
DILUPBiCGStab:  Solving for Uy, Initial residual = 0.0155809, Final residual = 3.38733e-05, No Iterations 5
DILUPBiCGStab:  Solving for Uz, Initial residual = 0.0305958, Final residual = 6.98503e-05, No Iterations 5
piso setup 12.584 [ms]
 correctNonOrthogonal 
 setRef 
 startSolve 
nonePCG:  Solving for p, Initial residual = 0.0250686, Final residual = 9.49491e-05, No Iterations 311
piso step 430.762 [ms]
 contErrors 
time step continuity errors : sum local = 1.4451e-08, global = -6.74545e-21, cumulative = -1.31633e-20
piso setup 13.997 [ms]
 correctNonOrthogonal 
 setRef 
 startSolve 
nonePCG:  Solving for p, Initial residual = 0.0218757, Final residual = 9.78217e-05, No Iterations 305
piso step 424.721 [ms]
 contErrors 
time step continuity errors : sum local = 1.40008e-08, global = 4.64193e-21, cumulative = -8.52134e-21
ExecutionTime = 19.83 s  ClockTime = 20 s

Time = 0.0065

Courant Number mean: 0.0648411 max: 0.475011
momentum setup 8.447 [ms]
DILUPBiCGStab:  Solving for Ux, Initial residual = 0.00655461, Final residual = 1.91827e-05, No Iterations 5
DILUPBiCGStab:  Solving for Uy, Initial residual = 0.0140643, Final residual = 3.05475e-05, No Iterations 5
DILUPBiCGStab:  Solving for Uz, Initial residual = 0.0277704, Final residual = 6.50718e-05, No Iterations 5
piso setup 11.858 [ms]
 correctNonOrthogonal 
 setRef 
 startSolve 
nonePCG:  Solving for p, Initial residual = 0.0207439, Final residual = 9.46601e-05, No Iterations 312
piso step 434.805 [ms]
 contErrors 
time step continuity errors : sum local = 1.42047e-08, global = -1.25359e-20, cumulative = -2.10573e-20
piso setup 11.357 [ms]
 correctNonOrthogonal 
 setRef 
 startSolve 
nonePCG:  Solving for p, Initial residual = 0.0182537, Final residual = 9.98867e-05, No Iterations 307
piso step 421.539 [ms]
 contErrors 
time step continuity errors : sum local = 1.43064e-08, global = -4.27859e-21, cumulative = -2.53359e-20
ExecutionTime = 20.83 s  ClockTime = 21 s

Time = 0.007

Courant Number mean: 0.0664084 max: 0.47574
momentum setup 8.634 [ms]
DILUPBiCGStab:  Solving for Ux, Initial residual = 0.00596104, Final residual = 1.71634e-05, No Iterations 5
DILUPBiCGStab:  Solving for Uy, Initial residual = 0.0127587, Final residual = 2.74969e-05, No Iterations 5
DILUPBiCGStab:  Solving for Uz, Initial residual = 0.0257048, Final residual = 5.95738e-05, No Iterations 5
piso setup 11.746 [ms]
 correctNonOrthogonal 
 setRef 
 startSolve 
nonePCG:  Solving for p, Initial residual = 0.0162455, Final residual = 9.90037e-05, No Iterations 317
piso step 439.526 [ms]
 contErrors 
time step continuity errors : sum local = 1.56915e-08, global = -4.07655e-21, cumulative = -2.94124e-20
piso setup 12.065 [ms]
 correctNonOrthogonal 
 setRef 
 startSolve 
nonePCG:  Solving for p, Initial residual = 0.0147, Final residual = 9.79547e-05, No Iterations 307
piso step 418.556 [ms]
 contErrors 
time step continuity errors : sum local = 1.42353e-08, global = -9.01136e-21, cumulative = -3.84238e-20
ExecutionTime = 21.84 s  ClockTime = 22 s

Time = 0.0075

Courant Number mean: 0.067855 max: 0.476379
momentum setup 8.448 [ms]
DILUPBiCGStab:  Solving for Ux, Initial residual = 0.00543299, Final residual = 1.52915e-05, No Iterations 5
DILUPBiCGStab:  Solving for Uy, Initial residual = 0.0116832, Final residual = 2.51015e-05, No Iterations 5
DILUPBiCGStab:  Solving for Uz, Initial residual = 0.0236606, Final residual = 6.0686e-05, No Iterations 5
piso setup 12.268 [ms]
 correctNonOrthogonal 
 setRef 
 startSolve 
nonePCG:  Solving for p, Initial residual = 0.014196, Final residual = 9.90925e-05, No Iterations 318
piso step 449.312 [ms]
 contErrors 
time step continuity errors : sum local = 1.5745e-08, global = -2.045e-21, cumulative = -4.04688e-20
piso setup 13.942 [ms]
 correctNonOrthogonal 
 setRef 
 startSolve 
nonePCG:  Solving for p, Initial residual = 0.01293, Final residual = 9.79062e-05, No Iterations 307
piso step 424.465 [ms]
 contErrors 
time step continuity errors : sum local = 1.42486e-08, global = -1.33678e-21, cumulative = -4.18055e-20
ExecutionTime = 22.86 s  ClockTime = 23 s

Time = 0.008

Courant Number mean: 0.0691917 max: 0.476947
momentum setup 8.54 [ms]
DILUPBiCGStab:  Solving for Ux, Initial residual = 0.00499903, Final residual = 1.38582e-05, No Iterations 5
DILUPBiCGStab:  Solving for Uy, Initial residual = 0.0107149, Final residual = 2.31377e-05, No Iterations 5
DILUPBiCGStab:  Solving for Uz, Initial residual = 0.0222632, Final residual = 6.03544e-05, No Iterations 5
piso setup 11.57 [ms]
 correctNonOrthogonal 
 setRef 
 startSolve 
nonePCG:  Solving for p, Initial residual = 0.0121896, Final residual = 9.57917e-05, No Iterations 689
piso step 945.432 [ms]
 contErrors 
time step continuity errors : sum local = 1.33952e-08, global = -6.99185e-21, cumulative = -4.87974e-20
piso setup 11.073 [ms]
 correctNonOrthogonal 
 setRef 
 startSolve 
nonePCG:  Solving for p, Initial residual = 0.0113208, Final residual = 9.72284e-05, No Iterations 686
piso step 936.257 [ms]
 contErrors 
time step continuity errors : sum local = 1.36014e-08, global = 9.1656e-21, cumulative = -3.96318e-20
ExecutionTime = 24.88 s  ClockTime = 25 s

Time = 0.0085

Courant Number mean: 0.0704369 max: 0.477456
momentum setup 8.85 [ms]
DILUPBiCGStab:  Solving for Ux, Initial residual = 0.00460167, Final residual = 1.25379e-05, No Iterations 5
DILUPBiCGStab:  Solving for Uy, Initial residual = 0.0098931, Final residual = 2.11712e-05, No Iterations 5
DILUPBiCGStab:  Solving for Uz, Initial residual = 0.0202001, Final residual = 4.47303e-05, No Iterations 5
piso setup 11.472 [ms]
 correctNonOrthogonal 
 setRef 
 startSolve 
nonePCG:  Solving for p, Initial residual = 0.0109462, Final residual = 9.81319e-05, No Iterations 297
piso step 415.096 [ms]
 contErrors 
time step continuity errors : sum local = 1.45312e-08, global = 2.59006e-21, cumulative = -3.70417e-20
piso setup 11.286 [ms]
 correctNonOrthogonal 
 setRef 
 startSolve 
nonePCG:  Solving for p, Initial residual = 0.0102241, Final residual = 9.94814e-05, No Iterations 291
piso step 403.779 [ms]
 contErrors 
time step continuity errors : sum local = 1.42317e-08, global = -1.09893e-20, cumulative = -4.80311e-20
ExecutionTime = 25.84 s  ClockTime = 26 s

Time = 0.009

Courant Number mean: 0.0715996 max: 0.477912
momentum setup 9.132 [ms]
DILUPBiCGStab:  Solving for Ux, Initial residual = 0.00425721, Final residual = 1.14205e-05, No Iterations 5
DILUPBiCGStab:  Solving for Uy, Initial residual = 0.00916528, Final residual = 1.94938e-05, No Iterations 5
DILUPBiCGStab:  Solving for Uz, Initial residual = 0.018696, Final residual = 4.20808e-05, No Iterations 5
piso setup 12.419 [ms]
 correctNonOrthogonal 
 setRef 
 startSolve 
nonePCG:  Solving for p, Initial residual = 0.00966488, Final residual = 9.68374e-05, No Iterations 298
piso step 412.203 [ms]
 contErrors 
time step continuity errors : sum local = 1.47633e-08, global = 7.38827e-21, cumulative = -4.06428e-20
piso setup 11.017 [ms]
 correctNonOrthogonal 
 setRef 
 startSolve 
nonePCG:  Solving for p, Initial residual = 0.00910244, Final residual = 9.96309e-05, No Iterations 289
piso step 398.005 [ms]
 contErrors 
time step continuity errors : sum local = 1.42229e-08, global = -3.03123e-21, cumulative = -4.3674e-20
ExecutionTime = 26.81 s  ClockTime = 27 s

Time = 0.0095

Courant Number mean: 0.0726862 max: 0.478326
momentum setup 8.514 [ms]
DILUPBiCGStab:  Solving for Ux, Initial residual = 0.00394835, Final residual = 1.04551e-05, No Iterations 5
DILUPBiCGStab:  Solving for Uy, Initial residual = 0.00853343, Final residual = 1.80796e-05, No Iterations 5
DILUPBiCGStab:  Solving for Uz, Initial residual = 0.0175038, Final residual = 4.30174e-05, No Iterations 5
piso setup 12.065 [ms]
 correctNonOrthogonal 
 setRef 
 startSolve 
nonePCG:  Solving for p, Initial residual = 0.00879143, Final residual = 9.76329e-05, No Iterations 306
piso step 426.017 [ms]
 contErrors 
time step continuity errors : sum local = 1.51608e-08, global = -5.25229e-21, cumulative = -4.89263e-20
piso setup 11.296 [ms]
 correctNonOrthogonal 
 setRef 
 startSolve 
nonePCG:  Solving for p, Initial residual = 0.00831591, Final residual = 9.87583e-05, No Iterations 296
piso step 406.729 [ms]
 contErrors 
time step continuity errors : sum local = 1.43193e-08, global = 9.48145e-21, cumulative = -3.94448e-20
ExecutionTime = 27.78 s  ClockTime = 28 s

Time = 0.01

Courant Number mean: 0.0737032 max: 0.478701
momentum setup 8.583 [ms]
DILUPBiCGStab:  Solving for Ux, Initial residual = 0.00368386, Final residual = 9.61848e-06, No Iterations 5
DILUPBiCGStab:  Solving for Uy, Initial residual = 0.00794802, Final residual = 1.69716e-05, No Iterations 5
DILUPBiCGStab:  Solving for Uz, Initial residual = 0.0166547, Final residual = 4.33599e-05, No Iterations 5
piso setup 12.234 [ms]
 correctNonOrthogonal 
 setRef 
 startSolve 
nonePCG:  Solving for p, Initial residual = 0.00833185, Final residual = 9.94539e-05, No Iterations 330
piso step 457.454 [ms]
 contErrors 
time step continuity errors : sum local = 1.61041e-08, global = 1.95421e-21, cumulative = -3.74906e-20
piso setup 12.921 [ms]
 correctNonOrthogonal 
 setRef 
 startSolve 
nonePCG:  Solving for p, Initial residual = 0.0078986, Final residual = 9.81022e-05, No Iterations 298
piso step 411.942 [ms]
 contErrors 
time step continuity errors : sum local = 1.43198e-08, global = -1.19657e-21, cumulative = -3.86872e-20
ExecutionTime = 28.8 s  ClockTime = 29 s

End

Finalising parallel run
