/*---------------------------------------------------------------------------*\
| =========                 |                                                 |
| \\      /  F ield         | OpenFOAM: The Open Source CFD Toolbox           |
|  \\    /   O peration     | Version:  2306                                  |
|   \\  /    A nd           | Website:  www.openfoam.com                      |
|    \\/     M anipulation  |                                                 |
\*---------------------------------------------------------------------------*/
Build  : a6e826bd55-20230630 OPENFOAM=2306 version=v2306
Arch   : "LSB;label=32;scalar=64"
Exec   : icoFoam -parallel -case /tmp/lidDrivenCavity/workspace/5389657a34ae52c3e4053da4211005d1/case
Date   : Jan 10 2024
Time   : 03:04:50
Host   : nla-gpu2.ianm.kit.edu
PID    : 406251
I/O    : uncollated
Case   : /tmp/lidDrivenCavity/workspace/5389657a34ae52c3e4053da4211005d1/case
nProcs : 32
Hosts  :
(
    (nla-gpu2.ianm.kit.edu 32)
)
Pstream initialized with:
    floatTransfer      : false
    nProcsSimpleSum    : 0
    nonBlockingExchange: 0 (tuning: 0)
    exchange algorithm : -1
    commsType          : nonBlocking
    polling iterations : 0
trapFpe: Floating point exception trapping enabled (FOAM_SIGFPE).
fileModificationChecking : Monitoring run-time modified files using timeStampMaster (fileModificationSkew 5, maxFileModificationPolls 20)
allowSystemOperations : Allowing user-supplied system call operations

// * * * * * * * * * * * * * * * * * * * * * * * * * * * * * * * * * * * * * //
Create time

--> FOAM Warning : 
    From void* Foam::dlLibraryTable::openLibrary(const Foam::fileName&, bool)
    in file db/dynamicLibrary/dlLibraryTable/dlLibraryTable.C at line 188
    Could not load "libpetscFoam.so"
libpetscFoam.so: cannot open shared object file: No such file or directory
Create mesh for time = 0


PISO: Operating solver in PISO mode

Reading transportProperties

Reading field p

Reading field U

Reading/calculating face flux field phi


Starting time loop

Time = 0.000166

Courant Number mean: 8.14055e-18 max: 3.11001e-14
[INFO] MatrixAssemblyU: 241.349 [ms]
DILUPBiCGStab:  Solving for Ux, Initial residual = 1, Final residual = 0.0163135, No Iterations 5
DILUPBiCGStab:  Solving for Uy:  solution singularity
DILUPBiCGStab:  Solving for Uz:  solution singularity
[INFO] MomentumPredictor: 874.822 [ms]
[INFO] MatrixAssemblyPI: 246.913 [ms]
[INFO] AdjustPhi: 13.158 [ms]
[INFO] ConstrainPressure: 0.013 [ms]
[INFO] MatrixAssemblyPII: 66.842 [ms]
GAMG:  Solving for p, Initial residual = 1, Final residual = 8.66128e-05, No Iterations 52
[INFO] SolveP: 7081.89 [ms]
time step continuity errors : sum local = 3.49991e-09, global = 7.13799e-22, cumulative = 7.13799e-22
[INFO] ContinuityError: 26.487 [ms]
[INFO] CorrectBoundary: 1.421 [ms]
[INFO] PISOStep: 7519.24 [ms]
[INFO] MatrixAssemblyPI: 234.983 [ms]
[INFO] AdjustPhi: 10.956 [ms]
[INFO] ConstrainPressure: 0.003 [ms]
[INFO] MatrixAssemblyPII: 69.416 [ms]
GAMG:  Solving for p, Initial residual = 0.809463, Final residual = 8.54025e-05, No Iterations 50
[INFO] SolveP: 6484.79 [ms]
time step continuity errors : sum local = 4.21372e-09, global = 5.1286e-23, cumulative = 7.65085e-22
[INFO] ContinuityError: 26.325 [ms]
[INFO] CorrectBoundary: 0.865 [ms]
[INFO] PISOStep: 6907.85 [ms]
[INFO] TimeStep: 15571.2 [ms]
ExecutionTime = 16.66 s  ClockTime = 17 s

Time = 0.000332

Courant Number mean: 0.0128238 max: 0.426584
[INFO] MatrixAssemblyU: 215.773 [ms]
DILUPBiCGStab:  Solving for Ux, Initial residual = 0.116959, Final residual = 0.009932, No Iterations 5
DILUPBiCGStab:  Solving for Uy, Initial residual = 0.460132, Final residual = 0.0326311, No Iterations 5
DILUPBiCGStab:  Solving for Uz, Initial residual = 0.987304, Final residual = 0.0792057, No Iterations 5
[INFO] MomentumPredictor: 1652.5 [ms]
[INFO] MatrixAssemblyPI: 240.176 [ms]
[INFO] AdjustPhi: 13.191 [ms]
[INFO] ConstrainPressure: 0.002 [ms]
[INFO] MatrixAssemblyPII: 69.671 [ms]
GAMG:  Solving for p, Initial residual = 0.881312, Final residual = 7.02533e-05, No Iterations 47
[INFO] SolveP: 6099.52 [ms]
time step continuity errors : sum local = 6.84612e-09, global = 3.83083e-22, cumulative = 1.14817e-21
[INFO] ContinuityError: 26.007 [ms]
[INFO] CorrectBoundary: 1.016 [ms]
[INFO] PISOStep: 6532.37 [ms]
[INFO] MatrixAssemblyPI: 233.024 [ms]
[INFO] AdjustPhi: 12.843 [ms]
[INFO] ConstrainPressure: 0.003 [ms]
[INFO] MatrixAssemblyPII: 69.337 [ms]
GAMG:  Solving for p, Initial residual = 0.829033, Final residual = 9.12739e-05, No Iterations 28
[INFO] SolveP: 3659.05 [ms]
time step continuity errors : sum local = 9.05779e-09, global = 2.06963e-22, cumulative = 1.35513e-21
[INFO] ContinuityError: 24.914 [ms]
[INFO] CorrectBoundary: 1.086 [ms]
[INFO] PISOStep: 4081.22 [ms]
[INFO] TimeStep: 12509.6 [ms]
ExecutionTime = 29.1 s  ClockTime = 29 s

Time = 0.000498

Courant Number mean: 0.0197846 max: 0.492012
[INFO] MatrixAssemblyU: 214.853 [ms]
DILUPBiCGStab:  Solving for Ux, Initial residual = 0.0544365, Final residual = 0.00371248, No Iterations 5
DILUPBiCGStab:  Solving for Uy, Initial residual = 0.226645, Final residual = 0.0167554, No Iterations 5
DILUPBiCGStab:  Solving for Uz, Initial residual = 0.857974, Final residual = 0.0640671, No Iterations 5
[INFO] MomentumPredictor: 1652.6 [ms]
[INFO] MatrixAssemblyPI: 241.396 [ms]
[INFO] AdjustPhi: 11.646 [ms]
[INFO] ConstrainPressure: 0.002 [ms]
[INFO] MatrixAssemblyPII: 68.964 [ms]
GAMG:  Solving for p, Initial residual = 0.915037, Final residual = 9.65605e-05, No Iterations 58
[INFO] SolveP: 7515.82 [ms]
time step continuity errors : sum local = 1.02389e-08, global = -1.80565e-22, cumulative = 1.17457e-21
[INFO] ContinuityError: 25.238 [ms]
[INFO] CorrectBoundary: 0.842 [ms]
[INFO] PISOStep: 7945.77 [ms]
[INFO] MatrixAssemblyPI: 234.789 [ms]
[INFO] AdjustPhi: 11.001 [ms]
[INFO] ConstrainPressure: 0.003 [ms]
[INFO] MatrixAssemblyPII: 70.085 [ms]
GAMG:  Solving for p, Initial residual = 0.883298, Final residual = 5.76728e-05, No Iterations 58
[INFO] SolveP: 7521.72 [ms]
time step continuity errors : sum local = 6.04943e-09, global = 9.22771e-22, cumulative = 2.09734e-21
[INFO] ContinuityError: 26.256 [ms]
[INFO] CorrectBoundary: 1.16 [ms]
[INFO] PISOStep: 7944.59 [ms]
[INFO] TimeStep: 17784.5 [ms]
ExecutionTime = 46.79 s  ClockTime = 47 s

Time = 0.000664

Courant Number mean: 0.023869 max: 0.472035
[INFO] MatrixAssemblyU: 214.927 [ms]
DILUPBiCGStab:  Solving for Ux, Initial residual = 0.0385739, Final residual = 0.00298701, No Iterations 5
DILUPBiCGStab:  Solving for Uy, Initial residual = 0.174079, Final residual = 0.0136215, No Iterations 5
DILUPBiCGStab:  Solving for Uz, Initial residual = 0.774621, Final residual = 0.0541101, No Iterations 5
[INFO] MomentumPredictor: 1658.27 [ms]
[INFO] MatrixAssemblyPI: 241.771 [ms]
[INFO] AdjustPhi: 11.183 [ms]
[INFO] ConstrainPressure: 0.003 [ms]
[INFO] MatrixAssemblyPII: 69.76 [ms]
GAMG:  Solving for p, Initial residual = 0.892702, Final residual = 8.97182e-05, No Iterations 60
[INFO] SolveP: 7756.8 [ms]
time step continuity errors : sum local = 1.01908e-08, global = -2.68531e-22, cumulative = 1.82881e-21
[INFO] ContinuityError: 25.258 [ms]
[INFO] CorrectBoundary: 1.639 [ms]
[INFO] PISOStep: 8186.96 [ms]
[INFO] MatrixAssemblyPI: 234.671 [ms]
[INFO] AdjustPhi: 11.121 [ms]
[INFO] ConstrainPressure: 0.003 [ms]
[INFO] MatrixAssemblyPII: 69.868 [ms]
GAMG:  Solving for p, Initial residual = 0.832346, Final residual = 9.83276e-05, No Iterations 52
[INFO] SolveP: 6735.69 [ms]
time step continuity errors : sum local = 1.13759e-08, global = 5.44528e-22, cumulative = 2.37333e-21
[INFO] ContinuityError: 26.549 [ms]
[INFO] CorrectBoundary: 1.036 [ms]
[INFO] PISOStep: 7158.37 [ms]
[INFO] TimeStep: 17245.4 [ms]
ExecutionTime = 63.95 s  ClockTime = 64 s

Time = 0.00083

Courant Number mean: 0.0273809 max: 0.505323
[INFO] MatrixAssemblyU: 210.989 [ms]
DILUPBiCGStab:  Solving for Ux, Initial residual = 0.0323749, Final residual = 0.00254779, No Iterations 5
DILUPBiCGStab:  Solving for Uy, Initial residual = 0.13017, Final residual = 0.0115639, No Iterations 5
DILUPBiCGStab:  Solving for Uz, Initial residual = 0.771238, Final residual = 0.0643029, No Iterations 5
[INFO] MomentumPredictor: 1658.01 [ms]
[INFO] MatrixAssemblyPI: 241.303 [ms]
[INFO] AdjustPhi: 11.476 [ms]
[INFO] ConstrainPressure: 0.003 [ms]
[INFO] MatrixAssemblyPII: 70.112 [ms]
GAMG:  Solving for p, Initial residual = 0.912303, Final residual = 8.59978e-05, No Iterations 32
[INFO] SolveP: 4176.27 [ms]
time step continuity errors : sum local = 9.67103e-09, global = 1.02689e-21, cumulative = 3.40022e-21
[INFO] ContinuityError: 25.338 [ms]
[INFO] CorrectBoundary: 1.265 [ms]
[INFO] PISOStep: 4605.87 [ms]
[INFO] MatrixAssemblyPI: 233.758 [ms]
[INFO] AdjustPhi: 11.472 [ms]
[INFO] ConstrainPressure: 0.003 [ms]
[INFO] MatrixAssemblyPII: 70.131 [ms]
GAMG:  Solving for p, Initial residual = 0.874133, Final residual = 8.36229e-05, No Iterations 38
[INFO] SolveP: 4943.1 [ms]
time step continuity errors : sum local = 9.27759e-09, global = 1.40621e-21, cumulative = 4.80643e-21
[INFO] ContinuityError: 25.509 [ms]
[INFO] CorrectBoundary: 1.324 [ms]
[INFO] PISOStep: 5365.23 [ms]
[INFO] TimeStep: 11867.2 [ms]
ExecutionTime = 75.76 s  ClockTime = 76 s

Time = 0.000996

Courant Number mean: 0.0301091 max: 0.478418
[INFO] MatrixAssemblyU: 214.15 [ms]
DILUPBiCGStab:  Solving for Ux, Initial residual = 0.0271481, Final residual = 0.00233378, No Iterations 5
DILUPBiCGStab:  Solving for Uy, Initial residual = 0.112209, Final residual = 0.00922237, No Iterations 5
DILUPBiCGStab:  Solving for Uz, Initial residual = 0.68676, Final residual = 0.0528893, No Iterations 5
[INFO] MomentumPredictor: 1652.46 [ms]
[INFO] MatrixAssemblyPI: 241.579 [ms]
[INFO] AdjustPhi: 11.046 [ms]
[INFO] ConstrainPressure: 0.003 [ms]
[INFO] MatrixAssemblyPII: 69.556 [ms]
GAMG:  Solving for p, Initial residual = 0.890677, Final residual = 9.69836e-05, No Iterations 45
[INFO] SolveP: 5833.38 [ms]
time step continuity errors : sum local = 1.11878e-08, global = 2.19579e-22, cumulative = 5.02601e-21
[INFO] ContinuityError: 25.269 [ms]
[INFO] CorrectBoundary: 1.016 [ms]
[INFO] PISOStep: 6262.81 [ms]
[INFO] MatrixAssemblyPI: 233.174 [ms]
[INFO] AdjustPhi: 12.734 [ms]
[INFO] ConstrainPressure: 0.003 [ms]
[INFO] MatrixAssemblyPII: 68.97 [ms]
GAMG:  Solving for p, Initial residual = 0.827569, Final residual = 9.66215e-05, No Iterations 37
[INFO] SolveP: 4819.42 [ms]
time step continuity errors : sum local = 1.13406e-08, global = 2.72358e-22, cumulative = 5.29837e-21
[INFO] ContinuityError: 24.049 [ms]
[INFO] CorrectBoundary: 0.713 [ms]
[INFO] PISOStep: 5241.73 [ms]
[INFO] TimeStep: 13398.1 [ms]
ExecutionTime = 89.09 s  ClockTime = 90 s

Time = 0.001162

Courant Number mean: 0.0325693 max: 0.512413
[INFO] MatrixAssemblyU: 214.553 [ms]
DILUPBiCGStab:  Solving for Ux, Initial residual = 0.0246094, Final residual = 0.00215679, No Iterations 5
DILUPBiCGStab:  Solving for Uy, Initial residual = 0.0988386, Final residual = 0.00848849, No Iterations 5
DILUPBiCGStab:  Solving for Uz, Initial residual = 0.682082, Final residual = 0.0557604, No Iterations 5
[INFO] MomentumPredictor: 1653.19 [ms]
[INFO] MatrixAssemblyPI: 241.364 [ms]
[INFO] AdjustPhi: 11.585 [ms]
[INFO] ConstrainPressure: 0.002 [ms]
[INFO] MatrixAssemblyPII: 69.652 [ms]
GAMG:  Solving for p, Initial residual = 0.908216, Final residual = 9.07844e-05, No Iterations 38
[INFO] SolveP: 4941.02 [ms]
time step continuity errors : sum local = 1.01956e-08, global = -2.50337e-22, cumulative = 5.04803e-21
[INFO] ContinuityError: 25.09 [ms]
[INFO] CorrectBoundary: 1.295 [ms]
[INFO] PISOStep: 5370.91 [ms]
[INFO] MatrixAssemblyPI: 233.713 [ms]
[INFO] AdjustPhi: 11.988 [ms]
[INFO] ConstrainPressure: 0.003 [ms]
[INFO] MatrixAssemblyPII: 70.059 [ms]
GAMG:  Solving for p, Initial residual = 0.863279, Final residual = 9.78576e-05, No Iterations 35
[INFO] SolveP: 4554.74 [ms]
time step continuity errors : sum local = 1.0911e-08, global = -2.64583e-22, cumulative = 4.78345e-21
[INFO] ContinuityError: 25.175 [ms]
[INFO] CorrectBoundary: 1.028 [ms]
[INFO] PISOStep: 4976.84 [ms]
[INFO] TimeStep: 12242.2 [ms]
ExecutionTime = 101.28 s  ClockTime = 102 s

Time = 0.001328

Courant Number mean: 0.0346382 max: 0.481358
[INFO] MatrixAssemblyU: 212.495 [ms]
DILUPBiCGStab:  Solving for Ux, Initial residual = 0.0222423, Final residual = 0.00202825, No Iterations 5
DILUPBiCGStab:  Solving for Uy, Initial residual = 0.0875757, Final residual = 0.00713528, No Iterations 5
DILUPBiCGStab:  Solving for Uz, Initial residual = 0.635107, Final residual = 0.0499484, No Iterations 5
[INFO] MomentumPredictor: 1652.84 [ms]
[INFO] MatrixAssemblyPI: 240.968 [ms]
[INFO] AdjustPhi: 11.808 [ms]
[INFO] ConstrainPressure: 0.003 [ms]
[INFO] MatrixAssemblyPII: 70.193 [ms]
GAMG:  Solving for p, Initial residual = 0.887085, Final residual = 9.54248e-05, No Iterations 39
[INFO] SolveP: 5057.49 [ms]
time step continuity errors : sum local = 1.09256e-08, global = 1.0486e-21, cumulative = 5.83205e-21
[INFO] ContinuityError: 25.557 [ms]
[INFO] CorrectBoundary: 0.877 [ms]
[INFO] PISOStep: 5486.82 [ms]
[INFO] MatrixAssemblyPI: 234.893 [ms]
[INFO] AdjustPhi: 11.997 [ms]
[INFO] ConstrainPressure: 0.003 [ms]
[INFO] MatrixAssemblyPII: 69.515 [ms]
GAMG:  Solving for p, Initial residual = 0.821401, Final residual = 8.87506e-05, No Iterations 42
[INFO] SolveP: 5455.67 [ms]
time step continuity errors : sum local = 1.02902e-08, global = 1.05828e-21, cumulative = 6.89033e-21
[INFO] ContinuityError: 23.787 [ms]
[INFO] CorrectBoundary: 1.018 [ms]
[INFO] PISOStep: 5879.27 [ms]
[INFO] TimeStep: 13258.2 [ms]
ExecutionTime = 114.47 s  ClockTime = 115 s

Time = 0.001494

Courant Number mean: 0.0365696 max: 0.518653
[INFO] MatrixAssemblyU: 214.214 [ms]
DILUPBiCGStab:  Solving for Ux, Initial residual = 0.020638, Final residual = 0.00188364, No Iterations 5
DILUPBiCGStab:  Solving for Uy, Initial residual = 0.0825105, Final residual = 0.00673223, No Iterations 5
DILUPBiCGStab:  Solving for Uz, Initial residual = 0.626042, Final residual = 0.047532, No Iterations 5
[INFO] MomentumPredictor: 1652.04 [ms]
[INFO] MatrixAssemblyPI: 241.556 [ms]
[INFO] AdjustPhi: 11.26 [ms]
[INFO] ConstrainPressure: 0.003 [ms]
[INFO] MatrixAssemblyPII: 69.973 [ms]
GAMG:  Solving for p, Initial residual = 0.90417, Final residual = 8.78451e-05, No Iterations 53
[INFO] SolveP: 6869.51 [ms]
time step continuity errors : sum local = 9.83139e-09, global = 1.09834e-21, cumulative = 7.98867e-21
[INFO] ContinuityError: 25.156 [ms]
[INFO] CorrectBoundary: 1.009 [ms]
[INFO] PISOStep: 7298.95 [ms]
[INFO] MatrixAssemblyPI: 234.268 [ms]
[INFO] AdjustPhi: 11.862 [ms]
[INFO] ConstrainPressure: 0.003 [ms]
[INFO] MatrixAssemblyPII: 70.193 [ms]
GAMG:  Solving for p, Initial residual = 0.85471, Final residual = 9.40578e-05, No Iterations 54
[INFO] SolveP: 6985.26 [ms]
time step continuity errors : sum local = 1.04275e-08, global = 2.97409e-22, cumulative = 8.28608e-21
[INFO] ContinuityError: 25.446 [ms]
[INFO] CorrectBoundary: 1.186 [ms]
[INFO] PISOStep: 7408.08 [ms]
[INFO] TimeStep: 16600.1 [ms]
ExecutionTime = 130.98 s  ClockTime = 132 s

Time = 0.00166

Courant Number mean: 0.0382494 max: 0.483701
[INFO] MatrixAssemblyU: 214.455 [ms]
DILUPBiCGStab:  Solving for Ux, Initial residual = 0.0194695, Final residual = 0.0017989, No Iterations 5
DILUPBiCGStab:  Solving for Uy, Initial residual = 0.0741773, Final residual = 0.00584033, No Iterations 5
DILUPBiCGStab:  Solving for Uz, Initial residual = 0.590111, Final residual = 0.0424096, No Iterations 5
[INFO] MomentumPredictor: 1655 [ms]
[INFO] MatrixAssemblyPI: 242.177 [ms]
[INFO] AdjustPhi: 11.179 [ms]
[INFO] ConstrainPressure: 0.002 [ms]
[INFO] MatrixAssemblyPII: 70.104 [ms]
GAMG:  Solving for p, Initial residual = 0.88584, Final residual = 9.30599e-05, No Iterations 59
[INFO] SolveP: 7630.38 [ms]
time step continuity errors : sum local = 1.0752e-08, global = 6.97579e-22, cumulative = 8.98366e-21
[INFO] ContinuityError: 25.646 [ms]
[INFO] CorrectBoundary: 1.11 [ms]
[INFO] PISOStep: 8060.28 [ms]
[INFO] MatrixAssemblyPI: 233.016 [ms]
[INFO] AdjustPhi: 12.741 [ms]
[INFO] ConstrainPressure: 0.002 [ms]
[INFO] MatrixAssemblyPII: 69.888 [ms]
GAMG:  Solving for p, Initial residual = 0.817048, Final residual = 9.61892e-05, No Iterations 49
[INFO] SolveP: 6342.95 [ms]
time step continuity errors : sum local = 1.12875e-08, global = 3.88816e-22, cumulative = 9.37248e-21
[INFO] ContinuityError: 25.171 [ms]
[INFO] CorrectBoundary: 0.847 [ms]
[INFO] PISOStep: 6765.34 [ms]
[INFO] TimeStep: 16721.8 [ms]
ExecutionTime = 147.62 s  ClockTime = 148 s

Time = 0.001826

Courant Number mean: 0.0398572 max: 0.525305
[INFO] MatrixAssemblyU: 214.129 [ms]
DILUPBiCGStab:  Solving for Ux, Initial residual = 0.0182666, Final residual = 0.00166953, No Iterations 5
DILUPBiCGStab:  Solving for Uy, Initial residual = 0.0725832, Final residual = 0.00562251, No Iterations 5
DILUPBiCGStab:  Solving for Uz, Initial residual = 0.598145, Final residual = 0.0440478, No Iterations 5
[INFO] MomentumPredictor: 1653.49 [ms]
[INFO] MatrixAssemblyPI: 242.002 [ms]
[INFO] AdjustPhi: 10.785 [ms]
[INFO] ConstrainPressure: 0.003 [ms]
[INFO] MatrixAssemblyPII: 70.159 [ms]
GAMG:  Solving for p, Initial residual = 0.904331, Final residual = 8.1402e-05, No Iterations 38
[INFO] SolveP: 4937.26 [ms]
time step continuity errors : sum local = 9.35096e-09, global = 1.86283e-21, cumulative = 1.12353e-20
[INFO] ContinuityError: 25.234 [ms]
[INFO] CorrectBoundary: 1.237 [ms]
[INFO] PISOStep: 5366.57 [ms]
[INFO] MatrixAssemblyPI: 234.946 [ms]
[INFO] AdjustPhi: 10.858 [ms]
[INFO] ConstrainPressure: 0.003 [ms]
[INFO] MatrixAssemblyPII: 69.89 [ms]
GAMG:  Solving for p, Initial residual = 0.850019, Final residual = 8.90225e-05, No Iterations 39
[INFO] SolveP: 5063.74 [ms]
time step continuity errors : sum local = 1.01657e-08, global = -6.65105e-23, cumulative = 1.11688e-20
[INFO] ContinuityError: 25.273 [ms]
[INFO] CorrectBoundary: 1.245 [ms]
[INFO] PISOStep: 5486.86 [ms]
[INFO] TimeStep: 12749.8 [ms]
ExecutionTime = 160.3 s  ClockTime = 161 s

Time = 0.001992

Courant Number mean: 0.0412778 max: 0.486808
[INFO] MatrixAssemblyU: 213.378 [ms]
DILUPBiCGStab:  Solving for Ux, Initial residual = 0.0177096, Final residual = 0.00162171, No Iterations 5
DILUPBiCGStab:  Solving for Uy, Initial residual = 0.0660676, Final residual = 0.00494912, No Iterations 5
DILUPBiCGStab:  Solving for Uz, Initial residual = 0.56828, Final residual = 0.0381608, No Iterations 5
[INFO] MomentumPredictor: 1652.28 [ms]
[INFO] MatrixAssemblyPI: 241.553 [ms]
[INFO] AdjustPhi: 11.422 [ms]
[INFO] ConstrainPressure: 0.002 [ms]
[INFO] MatrixAssemblyPII: 70.079 [ms]
GAMG:  Solving for p, Initial residual = 0.887346, Final residual = 8.91242e-05, No Iterations 47
[INFO] SolveP: 6092.73 [ms]
time step continuity errors : sum local = 1.06422e-08, global = 1.1378e-22, cumulative = 1.12826e-20
[INFO] ContinuityError: 26.401 [ms]
[INFO] CorrectBoundary: 0.974 [ms]
[INFO] PISOStep: 6523.88 [ms]
[INFO] MatrixAssemblyPI: 234.315 [ms]
[INFO] AdjustPhi: 12.545 [ms]
[INFO] ConstrainPressure: 0.003 [ms]
[INFO] MatrixAssemblyPII: 70.14 [ms]
GAMG:  Solving for p, Initial residual = 0.81711, Final residual = 9.26182e-05, No Iterations 39
[INFO] SolveP: 5072.54 [ms]
time step continuity errors : sum local = 1.11867e-08, global = -2.15099e-22, cumulative = 1.10675e-20
[INFO] ContinuityError: 25.07 [ms]
[INFO] CorrectBoundary: 0.689 [ms]
[INFO] PISOStep: 5496.44 [ms]
[INFO] TimeStep: 13912.9 [ms]
ExecutionTime = 174.14 s  ClockTime = 175 s

Time = 0.002158

Courant Number mean: 0.0426647 max: 0.532946
[INFO] MatrixAssemblyU: 212.719 [ms]
DILUPBiCGStab:  Solving for Ux, Initial residual = 0.0167409, Final residual = 0.0014989, No Iterations 5
DILUPBiCGStab:  Solving for Uy, Initial residual = 0.0661147, Final residual = 0.00485549, No Iterations 5
DILUPBiCGStab:  Solving for Uz, Initial residual = 0.581561, Final residual = 0.0404744, No Iterations 5
[INFO] MomentumPredictor: 1654.19 [ms]
[INFO] MatrixAssemblyPI: 240.755 [ms]
[INFO] AdjustPhi: 12.089 [ms]
[INFO] ConstrainPressure: 0.003 [ms]
[INFO] MatrixAssemblyPII: 70.189 [ms]
GAMG:  Solving for p, Initial residual = 0.905037, Final residual = 8.60373e-05, No Iterations 32
[INFO] SolveP: 4165.9 [ms]
time step continuity errors : sum local = 1.02784e-08, global = -9.28916e-23, cumulative = 1.09746e-20
[INFO] ContinuityError: 25.848 [ms]
[INFO] CorrectBoundary: 0.884 [ms]
[INFO] PISOStep: 4598.11 [ms]
[INFO] MatrixAssemblyPI: 234.504 [ms]
[INFO] AdjustPhi: 11.767 [ms]
[INFO] ConstrainPressure: 0.003 [ms]
[INFO] MatrixAssemblyPII: 70.018 [ms]
GAMG:  Solving for p, Initial residual = 0.847184, Final residual = 8.78019e-05, No Iterations 34
[INFO] SolveP: 4424.8 [ms]
time step continuity errors : sum local = 1.04175e-08, global = -4.49508e-22, cumulative = 1.05251e-20
[INFO] ContinuityError: 25.655 [ms]
[INFO] CorrectBoundary: 1.226 [ms]
[INFO] PISOStep: 4847.67 [ms]
[INFO] TimeStep: 11339.4 [ms]
ExecutionTime = 185.42 s  ClockTime = 186 s

Time = 0.002324

Courant Number mean: 0.0438982 max: 0.489868
[INFO] MatrixAssemblyU: 211.107 [ms]
DILUPBiCGStab:  Solving for Ux, Initial residual = 0.0165406, Final residual = 0.00148085, No Iterations 5
DILUPBiCGStab:  Solving for Uy, Initial residual = 0.0609295, Final residual = 0.00431596, No Iterations 5
DILUPBiCGStab:  Solving for Uz, Initial residual = 0.563149, Final residual = 0.037002, No Iterations 5
[INFO] MomentumPredictor: 1659.21 [ms]
[INFO] MatrixAssemblyPI: 241.632 [ms]
[INFO] AdjustPhi: 11.497 [ms]
[INFO] ConstrainPressure: 0.002 [ms]
[INFO] MatrixAssemblyPII: 70.102 [ms]
GAMG:  Solving for p, Initial residual = 0.889725, Final residual = 9.80282e-05, No Iterations 49
[INFO] SolveP: 6349.45 [ms]
time step continuity errors : sum local = 1.22144e-08, global = -2.69269e-22, cumulative = 1.02558e-20
[INFO] ContinuityError: 24.944 [ms]
[INFO] CorrectBoundary: 0.911 [ms]
[INFO] PISOStep: 6778.9 [ms]
[INFO] MatrixAssemblyPI: 232.454 [ms]
[INFO] AdjustPhi: 14.007 [ms]
[INFO] ConstrainPressure: 0.003 [ms]
[INFO] MatrixAssemblyPII: 69.989 [ms]
GAMG:  Solving for p, Initial residual = 0.818344, Final residual = 7.44665e-05, No Iterations 39
[INFO] SolveP: 5063.3 [ms]
time step continuity errors : sum local = 9.3539e-09, global = 2.85763e-22, cumulative = 1.05416e-20
[INFO] ContinuityError: 24.949 [ms]
[INFO] CorrectBoundary: 1.083 [ms]
[INFO] PISOStep: 5486.54 [ms]
[INFO] TimeStep: 14162.4 [ms]
ExecutionTime = 199.51 s  ClockTime = 201 s

Time = 0.00249

Courant Number mean: 0.0451248 max: 0.541628
[INFO] MatrixAssemblyU: 215.149 [ms]
DILUPBiCGStab:  Solving for Ux, Initial residual = 0.0157512, Final residual = 0.00136183, No Iterations 5
DILUPBiCGStab:  Solving for Uy, Initial residual = 0.0617832, Final residual = 0.00429672, No Iterations 5
DILUPBiCGStab:  Solving for Uz, Initial residual = 0.571004, Final residual = 0.036611, No Iterations 5
[INFO] MomentumPredictor: 1659.44 [ms]
[INFO] MatrixAssemblyPI: 242.431 [ms]
[INFO] AdjustPhi: 11.8 [ms]
[INFO] ConstrainPressure: 0.003 [ms]
[INFO] MatrixAssemblyPII: 69.861 [ms]
GAMG:  Solving for p, Initial residual = 0.905864, Final residual = 9.80538e-05, No Iterations 46
[INFO] SolveP: 5968.24 [ms]
time step continuity errors : sum local = 1.22701e-08, global = 5.43361e-22, cumulative = 1.10849e-20
[INFO] ContinuityError: 25.095 [ms]
[INFO] CorrectBoundary: 1.912 [ms]
[INFO] PISOStep: 6399.21 [ms]
[INFO] MatrixAssemblyPI: 235.484 [ms]
[INFO] AdjustPhi: 11.287 [ms]
[INFO] ConstrainPressure: 0.003 [ms]
[INFO] MatrixAssemblyPII: 69.827 [ms]
GAMG:  Solving for p, Initial residual = 0.844994, Final residual = 9.8307e-05, No Iterations 37
[INFO] SolveP: 4809.06 [ms]
time step continuity errors : sum local = 1.22334e-08, global = 1.95702e-21, cumulative = 1.3042e-20
[INFO] ContinuityError: 25.257 [ms]
[INFO] CorrectBoundary: 1.642 [ms]
[INFO] PISOStep: 5233.28 [ms]
[INFO] TimeStep: 13533.8 [ms]
ExecutionTime = 212.98 s  ClockTime = 214 s

Time = 0.002656

Courant Number mean: 0.0462154 max: 0.49298
[INFO] MatrixAssemblyU: 215.265 [ms]
DILUPBiCGStab:  Solving for Ux, Initial residual = 0.0157572, Final residual = 0.0013629, No Iterations 5
DILUPBiCGStab:  Solving for Uy, Initial residual = 0.0577008, Final residual = 0.00385103, No Iterations 5
DILUPBiCGStab:  Solving for Uz, Initial residual = 0.562843, Final residual = 0.0360066, No Iterations 5
[INFO] MomentumPredictor: 1651.08 [ms]
[INFO] MatrixAssemblyPI: 242.02 [ms]
[INFO] AdjustPhi: 10.731 [ms]
[INFO] ConstrainPressure: 0.002 [ms]
[INFO] MatrixAssemblyPII: 70.068 [ms]
GAMG:  Solving for p, Initial residual = 0.892597, Final residual = 8.94813e-05, No Iterations 35
[INFO] SolveP: 4551.53 [ms]
time step continuity errors : sum local = 1.16218e-08, global = 1.89218e-21, cumulative = 1.49341e-20
[INFO] ContinuityError: 25.034 [ms]
[INFO] CorrectBoundary: 0.985 [ms]
[INFO] PISOStep: 4980.66 [ms]
[INFO] MatrixAssemblyPI: 235.162 [ms]
[INFO] AdjustPhi: 10.758 [ms]
[INFO] ConstrainPressure: 0.002 [ms]
[INFO] MatrixAssemblyPII: 70.07 [ms]
GAMG:  Solving for p, Initial residual = 0.820338, Final residual = 8.14234e-05, No Iterations 40
[INFO] SolveP: 5197.83 [ms]
time step continuity errors : sum local = 1.06643e-08, global = 5.45189e-22, cumulative = 1.54793e-20
[INFO] ContinuityError: 25.133 [ms]
[INFO] CorrectBoundary: 0.788 [ms]
[INFO] PISOStep: 5619.88 [ms]
[INFO] TimeStep: 12493.7 [ms]
ExecutionTime = 225.41 s  ClockTime = 227 s

Time = 0.002822

Courant Number mean: 0.047319 max: 0.551772
[INFO] MatrixAssemblyU: 214.931 [ms]
DILUPBiCGStab:  Solving for Ux, Initial residual = 0.0151503, Final residual = 0.00125328, No Iterations 5
DILUPBiCGStab:  Solving for Uy, Initial residual = 0.0590021, Final residual = 0.00388052, No Iterations 5
DILUPBiCGStab:  Solving for Uz, Initial residual = 0.562396, Final residual = 0.032308, No Iterations 5
[INFO] MomentumPredictor: 1652.08 [ms]
[INFO] MatrixAssemblyPI: 241.511 [ms]
[INFO] AdjustPhi: 11.494 [ms]
[INFO] ConstrainPressure: 0.003 [ms]
[INFO] MatrixAssemblyPII: 70.089 [ms]
GAMG:  Solving for p, Initial residual = 0.907114, Final residual = 6.16341e-05, No Iterations 43
[INFO] SolveP: 5581.45 [ms]
time step continuity errors : sum local = 8.08273e-09, global = -5.52955e-22, cumulative = 1.49264e-20
[INFO] ContinuityError: 25.182 [ms]
[INFO] CorrectBoundary: 1.091 [ms]
[INFO] PISOStep: 6011.21 [ms]
[INFO] MatrixAssemblyPI: 235.171 [ms]
[INFO] AdjustPhi: 10.636 [ms]
[INFO] ConstrainPressure: 0.003 [ms]
[INFO] MatrixAssemblyPII: 69.845 [ms]
GAMG:  Solving for p, Initial residual = 0.843307, Final residual = 9.04838e-05, No Iterations 45
[INFO] SolveP: 5827.51 [ms]
time step continuity errors : sum local = 1.17799e-08, global = 1.75979e-21, cumulative = 1.66862e-20
[INFO] ContinuityError: 25.625 [ms]
[INFO] CorrectBoundary: 1.181 [ms]
[INFO] PISOStep: 6249.79 [ms]
[INFO] TimeStep: 14155.4 [ms]
ExecutionTime = 239.49 s  ClockTime = 241 s

Time = 0.002988

Courant Number mean: 0.0482966 max: 0.496306
[INFO] MatrixAssemblyU: 218.683 [ms]
DILUPBiCGStab:  Solving for Ux, Initial residual = 0.0152855, Final residual = 0.00126554, No Iterations 5
DILUPBiCGStab:  Solving for Uy, Initial residual = 0.0558724, Final residual = 0.00350473, No Iterations 5
DILUPBiCGStab:  Solving for Uz, Initial residual = 0.550727, Final residual = 0.0308025, No Iterations 5
[INFO] MomentumPredictor: 1649.32 [ms]
[INFO] MatrixAssemblyPI: 241.735 [ms]
[INFO] AdjustPhi: 10.91 [ms]
[INFO] ConstrainPressure: 0.003 [ms]
[INFO] MatrixAssemblyPII: 69.963 [ms]
GAMG:  Solving for p, Initial residual = 0.896911, Final residual = 9.08208e-05, No Iterations 40
[INFO] SolveP: 5194.35 [ms]
time step continuity errors : sum local = 1.23409e-08, global = 5.91231e-22, cumulative = 1.72774e-20
[INFO] ContinuityError: 25.18 [ms]
[INFO] CorrectBoundary: 1.36 [ms]
[INFO] PISOStep: 5623.8 [ms]
[INFO] MatrixAssemblyPI: 234.826 [ms]
[INFO] AdjustPhi: 11.079 [ms]
[INFO] ConstrainPressure: 0.003 [ms]
[INFO] MatrixAssemblyPII: 70.017 [ms]
GAMG:  Solving for p, Initial residual = 0.82326, Final residual = 8.69955e-05, No Iterations 40
[INFO] SolveP: 5188.99 [ms]
time step continuity errors : sum local = 1.19235e-08, global = -5.05926e-22, cumulative = 1.67715e-20
[INFO] ContinuityError: 24.88 [ms]
[INFO] CorrectBoundary: 1.005 [ms]
[INFO] PISOStep: 5611.86 [ms]
[INFO] TimeStep: 13130.8 [ms]
ExecutionTime = 252.55 s  ClockTime = 254 s

Time = 0.003154

Courant Number mean: 0.0493032 max: 0.563351
[INFO] MatrixAssemblyU: 213.712 [ms]
DILUPBiCGStab:  Solving for Ux, Initial residual = 0.0148516, Final residual = 0.00116707, No Iterations 5
DILUPBiCGStab:  Solving for Uy, Initial residual = 0.0574145, Final residual = 0.00356144, No Iterations 5
DILUPBiCGStab:  Solving for Uz, Initial residual = 0.568717, Final residual = 0.0329182, No Iterations 5
[INFO] MomentumPredictor: 1659.43 [ms]
[INFO] MatrixAssemblyPI: 242.128 [ms]
[INFO] AdjustPhi: 10.742 [ms]
[INFO] ConstrainPressure: 0.003 [ms]
[INFO] MatrixAssemblyPII: 70.235 [ms]
GAMG:  Solving for p, Initial residual = 0.909726, Final residual = 9.99642e-05, No Iterations 50
[INFO] SolveP: 6478.56 [ms]
time step continuity errors : sum local = 1.37808e-08, global = 2.36163e-21, cumulative = 1.91331e-20
[INFO] ContinuityError: 25.013 [ms]
[INFO] CorrectBoundary: 1.152 [ms]
[INFO] PISOStep: 6907.62 [ms]
[INFO] MatrixAssemblyPI: 235.097 [ms]
[INFO] AdjustPhi: 11.45 [ms]
[INFO] ConstrainPressure: 0.003 [ms]
[INFO] MatrixAssemblyPII: 69.976 [ms]
GAMG:  Solving for p, Initial residual = 0.842976, Final residual = 9.37782e-05, No Iterations 37
[INFO] SolveP: 4808.53 [ms]
time step continuity errors : sum local = 1.28685e-08, global = 5.82683e-22, cumulative = 1.97158e-20
[INFO] ContinuityError: 24.538 [ms]
[INFO] CorrectBoundary: 1.486 [ms]
[INFO] PISOStep: 5232.06 [ms]
[INFO] TimeStep: 14039.8 [ms]
ExecutionTime = 266.53 s  ClockTime = 268 s

Time = 0.00332

Courant Number mean: 0.0501891 max: 0.499908
[INFO] MatrixAssemblyU: 215.31 [ms]
DILUPBiCGStab:  Solving for Ux, Initial residual = 0.0150869, Final residual = 0.00118554, No Iterations 5
DILUPBiCGStab:  Solving for Uy, Initial residual = 0.05508, Final residual = 0.00324962, No Iterations 5
DILUPBiCGStab:  Solving for Uz, Initial residual = 0.565252, Final residual = 0.0324437, No Iterations 5
[INFO] MomentumPredictor: 1651.88 [ms]
[INFO] MatrixAssemblyPI: 241.441 [ms]
[INFO] AdjustPhi: 11.084 [ms]
[INFO] ConstrainPressure: 0.003 [ms]
[INFO] MatrixAssemblyPII: 69.761 [ms]
GAMG:  Solving for p, Initial residual = 0.902435, Final residual = 9.66975e-05, No Iterations 37
[INFO] SolveP: 4808.44 [ms]
time step continuity errors : sum local = 1.38683e-08, global = 1.42049e-22, cumulative = 1.98578e-20
[INFO] ContinuityError: 24.993 [ms]
[INFO] CorrectBoundary: 1.048 [ms]
[INFO] PISOStep: 5237.42 [ms]
[INFO] MatrixAssemblyPI: 234.486 [ms]
[INFO] AdjustPhi: 11.507 [ms]
[INFO] ConstrainPressure: 0.003 [ms]
[INFO] MatrixAssemblyPII: 70.265 [ms]
GAMG:  Solving for p, Initial residual = 0.827649, Final residual = 9.68879e-05, No Iterations 48
[INFO] SolveP: 6224.49 [ms]
time step continuity errors : sum local = 1.39824e-08, global = 5.95625e-22, cumulative = 2.04535e-20
[INFO] ContinuityError: 26.628 [ms]
[INFO] CorrectBoundary: 0.983 [ms]
[INFO] PISOStep: 6650.63 [ms]
[INFO] TimeStep: 13782.1 [ms]
ExecutionTime = 280.24 s  ClockTime = 282 s

End

Finalising parallel run
