/*---------------------------------------------------------------------------*\
| =========                 |                                                 |
| \\      /  F ield         | OpenFOAM: The Open Source CFD Toolbox           |
|  \\    /   O peration     | Version:  2306                                  |
|   \\  /    A nd           | Website:  www.openfoam.com                      |
|    \\/     M anipulation  |                                                 |
\*---------------------------------------------------------------------------*/
Build  : c423ebec-20231012 OPENFOAM=2306 version=v2306
Arch   : "LSB;label=32;scalar=64"
Exec   : icoFoam -parallel -case /hkfs/work/workspace/scratch/eq4036-l3d/workspace/24276af08287a9b475762cb91f7af259/case
Date   : Jan 10 2024
Time   : 21:59:46
Host   : hkn0519.localdomain
PID    : 1992153
I/O    : uncollated
Case   : /hkfs/work/workspace/scratch/eq4036-l3d/workspace/24276af08287a9b475762cb91f7af259/case
nProcs : 8
Hosts  :
(
    (hkn0519.localdomain 8)
)
Pstream initialized with:
    floatTransfer      : false
    nProcsSimpleSum    : 0
    nonBlockingExchange: 0 (tuning: 0)
    exchange algorithm : -1
    commsType          : nonBlocking
    polling iterations : 0
trapFpe: Floating point exception trapping enabled (FOAM_SIGFPE).
fileModificationChecking : Monitoring run-time modified files using timeStampMaster (fileModificationSkew 5, maxFileModificationPolls 20)
allowSystemOperations : Allowing user-supplied system call operations

// * * * * * * * * * * * * * * * * * * * * * * * * * * * * * * * * * * * * * //
Create time

--> FOAM Warning : 
    From void* Foam::dlLibraryTable::openLibrary(const Foam::fileName&, bool)
    in file db/dynamicLibrary/dlLibraryTable/dlLibraryTable.C at line 188
    Could not load "libpetscFoam.so"
libpetscFoam.so: cannot open shared object file: No such file or directory
Create mesh for time = 0


PISO: Operating solver in PISO mode

Reading transportProperties

Reading field p

Reading field U

Reading/calculating face flux field phi


Starting time loop

Time = 0.0005

Courant Number mean: 8.62851e-18 max: 8.67362e-15
[INFO] MatrixAssemblyU: 26.366 [ms]
DILUPBiCGStab:  Solving for Ux, Initial residual = 1, Final residual = 0.0025649, No Iterations 5
DILUPBiCGStab:  Solving for Uy:  solution singularity
DILUPBiCGStab:  Solving for Uz:  solution singularity
[INFO] MomentumPredictor: 88.027 [ms]
[INFO] MatrixAssemblyPI: 19.651 [ms]
[INFO] AdjustPhi: 7.886 [ms]
[INFO] ConstrainPressure: 0.005 [ms]
[INFO] MatrixAssemblyPII: 6.372 [ms]
[OGL LOG][lduLduBase.H:119] Initialising OGL
	OGL commit:  e75313f+
	Branch: dev 
	Build type: Debug
	Ginkgo version: 1.8.0 ( develop)
	Ginkgo commit: sparse-communicator
	MPI is GPU aware: 1
	Forces host buffer based communication: 0
	CPU ranks per GPU: 1
	Matrix format: Ell
	End OGL_INFO
[OGL LOG][Proc: 0]: global_index_init: 1.281 [ms]
[OGL LOG][Proc: 0]p_local_cols: call_init: 1.11 [ms]
[OGL LOG][Proc: 0]p_local_rows: call_init: 0.687 [ms]
[OGL LOG][Proc: 0]p_local_ldu_map: call_init: 0.31 [ms]
[OGL LOG][Proc: 0]p_local_coeffs: call_init: 4.797 [ms]
[OGL LOG][Proc: 0]p_non_local_cols: call_init: 0.018 [ms]
[OGL LOG][Proc: 0]p_non_local_rows: call_init: 0.005 [ms]
[OGL LOG][Proc: 0]p_non_local_ldu_map: call_init: 0.214 [ms]
[OGL LOG][Proc: 0]p_non_local_coeffs: call_init: 0.224 [ms]
[OGL LOG][Proc: 0]p: init_local_sparsity_pattern: 2840.86 [ms]
[OGL LOG][Proc: 0]p: init_non_local_sparsity_pattern: 25.227 [ms]
[OGL LOG][Proc: 0]p: update_local_matrix_data: 9158.84 [ms]
[OGL LOG][Proc: 0]p: update_non_local_matrix_data: 0.371 [ms]
[OGL LOG][Proc: 0]device_partition: call_init: 0.128 [ms]
[OGL LOG][Proc: 0]p_matrix: call_init: 15.874 [ms]
[OGL LOG][Proc: 0]p_rhs: call_init: 0.591 [ms]
[OGL LOG][Proc: 0]p_solution: call_init: 0.447 [ms]
[OGL LOG][Preconditioner.H:271] Generate preconditioner GISAI SparsityPower 1
[OGL LOG][Proc: 0]p: init_precond: 5218.75 [ms]
[OGL LOG][StoppingCriterion.H:239] Creating stopping criterion with minIter 0 frequency 1
[OGL LOG][Proc: 0]p: generate_solver: 0.16 [ms]
[OGL LOG][Proc: 0]p: solve: 23554.7 [ms]
[OGL LOG][Proc: 0]p: copy_x_back: 0.624 [ms]
[OGL LOG][lduLduBase.H:330] 
Statistics:
	Time per iteration: 49693 [mu s]
	Time per residual norm calculation: 5355.000000 [mu s]
	Time per iteration and DOF: 49.693000 [ns]
	Retrieve results bandwidth 1.602000 [GByte/s]
[OGL LOG][Proc: 0]p: solve_multi_gpu: 28793.8 [ms]
GISAIcudaGKOCG:  Solving for p, Initial residual = 1, Final residual = 9.62506e-05, No Iterations 474
[INFO] SolveP: 42256.8 [ms]
time step continuity errors : sum local = 2.06688e-08, global = -2.24343e-21, cumulative = -2.24343e-21
[INFO] ContinuityError: 3.241 [ms]
[INFO] CorrectBoundary: 0.122 [ms]
[INFO] PISOStep: 42305.8 [ms]
[INFO] MatrixAssemblyPI: 22.742 [ms]
[INFO] AdjustPhi: 1.013 [ms]
[INFO] ConstrainPressure: 0.002 [ms]
[INFO] MatrixAssemblyPII: 8.272 [ms]
[OGL LOG][Proc: 0]: global_index_init: 0.027 [ms]
[OGL LOG][Proc: 0]p_local_coeffs: call_update: 0.001 [ms]
[OGL LOG][Proc: 0]p_non_local_coeffs: call_update: 0 [ms]
[OGL LOG][Proc: 0]p: update_local_matrix_data: 5.569 [ms]
[OGL LOG][Proc: 0]p: update_non_local_matrix_data: 0.243 [ms]
[OGL LOG][Proc: 0]p: regenerate_distributed_matrix: 14.349 [ms]
[OGL LOG][Proc: 0]p_matrix: call_update: 15.372 [ms]
[OGL LOG][Proc: 0]p_rhs: call_update: 0.43 [ms]
[OGL LOG][Preconditioner.H:271] Generate preconditioner GISAI SparsityPower 1
[OGL LOG][Proc: 0]p: init_precond: 18.605 [ms]
[OGL LOG][StoppingCriterion.H:239] Creating stopping criterion with minIter 284 frequency 4
[OGL LOG][Proc: 0]p: generate_solver: 0.016 [ms]
[OGL LOG][Proc: 0]p: solve: 1138.81 [ms]
[OGL LOG][Proc: 0]p: copy_x_back: 0.484 [ms]
[OGL LOG][lduLduBase.H:330] 
Statistics:
	Time per iteration: 2407 [mu s]
	Time per residual norm calculation: 1404.000000 [mu s]
	Time per iteration and DOF: 2.407000 [ns]
	Retrieve results bandwidth 2.066000 [GByte/s]
[OGL LOG][Proc: 0]p: solve_multi_gpu: 1175.66 [ms]
GISAIcudaGKOCG:  Solving for p, Initial residual = 0.731057, Final residual = 8.46456e-05, No Iterations 473
[INFO] SolveP: 1183.04 [ms]
time step continuity errors : sum local = 2.40037e-08, global = -1.02216e-21, cumulative = -3.26559e-21
[INFO] ContinuityError: 3.106 [ms]
[INFO] CorrectBoundary: 0.146 [ms]
[INFO] PISOStep: 1226.97 [ms]
[INFO] TimeStep: 43651.1 [ms]
ExecutionTime = 42.57 s  ClockTime = 44 s

Time = 0.001

Courant Number mean: 0.0215341 max: 0.377097
[INFO] MatrixAssemblyU: 19.261 [ms]
DILUPBiCGStab:  Solving for Ux, Initial residual = 0.150351, Final residual = 0.00113128, No Iterations 5
DILUPBiCGStab:  Solving for Uy, Initial residual = 0.368162, Final residual = 0.00224402, No Iterations 5
DILUPBiCGStab:  Solving for Uz, Initial residual = 0.988618, Final residual = 0.0060601, No Iterations 5
[INFO] MomentumPredictor: 157.336 [ms]
[INFO] MatrixAssemblyPI: 20.495 [ms]
[INFO] AdjustPhi: 0.925 [ms]
[INFO] ConstrainPressure: 0.002 [ms]
[INFO] MatrixAssemblyPII: 6.458 [ms]
[OGL LOG][Proc: 0]: global_index_init: 0.017 [ms]
[OGL LOG][Proc: 0]p_local_coeffs: call_update: 0 [ms]
[OGL LOG][Proc: 0]p_non_local_coeffs: call_update: 0 [ms]
[OGL LOG][Proc: 0]p: update_local_matrix_data: 5.077 [ms]
[OGL LOG][Proc: 0]p: update_non_local_matrix_data: 0.239 [ms]
[OGL LOG][Proc: 0]p: regenerate_distributed_matrix: 14.403 [ms]
[OGL LOG][Proc: 0]p_matrix: call_update: 15.072 [ms]
[OGL LOG][Proc: 0]p_rhs: call_update: 0.605 [ms]
[OGL LOG][Preconditioner.H:271] Generate preconditioner GISAI SparsityPower 1
[OGL LOG][Proc: 0]p: init_precond: 16.353 [ms]
[OGL LOG][StoppingCriterion.H:239] Creating stopping criterion with minIter 283 frequency 13
[OGL LOG][Proc: 0]p: generate_solver: 0.014 [ms]
[OGL LOG][Proc: 0]p: solve: 1026.55 [ms]
[OGL LOG][Proc: 0]p: copy_x_back: 0.361 [ms]
[OGL LOG][lduLduBase.H:330] 
Statistics:
	Time per iteration: 2317 [mu s]
	Time per residual norm calculation: 1255.000000 [mu s]
	Time per iteration and DOF: 2.317000 [ns]
	Retrieve results bandwidth 2.770000 [GByte/s]
[OGL LOG][Proc: 0]p: solve_multi_gpu: 1060.69 [ms]
GISAIcudaGKOCG:  Solving for p, Initial residual = 0.690564, Final residual = 9.94886e-05, No Iterations 443
[INFO] SolveP: 1067.72 [ms]
time step continuity errors : sum local = 3.15637e-08, global = -3.45431e-21, cumulative = -6.7199e-21
[INFO] ContinuityError: 2.332 [ms]
[INFO] CorrectBoundary: 0.538 [ms]
[INFO] PISOStep: 1106.53 [ms]
[INFO] MatrixAssemblyPI: 19.622 [ms]
[INFO] AdjustPhi: 0.915 [ms]
[INFO] ConstrainPressure: 0.002 [ms]
[INFO] MatrixAssemblyPII: 6.407 [ms]
[OGL LOG][Proc: 0]: global_index_init: 0.017 [ms]
[OGL LOG][Proc: 0]p_local_coeffs: call_update: 0 [ms]
[OGL LOG][Proc: 0]p_non_local_coeffs: call_update: 0 [ms]
[OGL LOG][Proc: 0]p: update_local_matrix_data: 5.121 [ms]
[OGL LOG][Proc: 0]p: update_non_local_matrix_data: 0.218 [ms]
[OGL LOG][Proc: 0]p: regenerate_distributed_matrix: 11.77 [ms]
[OGL LOG][Proc: 0]p_matrix: call_update: 12.677 [ms]
[OGL LOG][Proc: 0]p_rhs: call_update: 0.452 [ms]
[OGL LOG][Preconditioner.H:271] Generate preconditioner GISAI SparsityPower 1
[OGL LOG][Proc: 0]p: init_precond: 18.251 [ms]
[OGL LOG][StoppingCriterion.H:239] Creating stopping criterion with minIter 265 frequency 13
[OGL LOG][Proc: 0]p: generate_solver: 0.02 [ms]
[OGL LOG][Proc: 0]p: solve: 993.931 [ms]
[OGL LOG][Proc: 0]p: copy_x_back: 0.369 [ms]
[OGL LOG][lduLduBase.H:330] 
Statistics:
	Time per iteration: 2311 [mu s]
	Time per residual norm calculation: 1257.000000 [mu s]
	Time per iteration and DOF: 2.311000 [ns]
	Retrieve results bandwidth 2.710000 [GByte/s]
[OGL LOG][Proc: 0]p: solve_multi_gpu: 1027.44 [ms]
GISAIcudaGKOCG:  Solving for p, Initial residual = 0.619745, Final residual = 9.11972e-05, No Iterations 430
[INFO] SolveP: 1034.49 [ms]
time step continuity errors : sum local = 2.95102e-08, global = -3.95806e-21, cumulative = -1.0678e-20
[INFO] ContinuityError: 2.443 [ms]
[INFO] CorrectBoundary: 0.097 [ms]
[INFO] PISOStep: 1072.05 [ms]
[INFO] TimeStep: 2358.02 [ms]
ExecutionTime = 44.93 s  ClockTime = 46 s

Time = 0.0015

Courant Number mean: 0.0324926 max: 0.441244
[INFO] MatrixAssemblyU: 18.807 [ms]
DILUPBiCGStab:  Solving for Ux, Initial residual = 0.0531053, Final residual = 0.000326418, No Iterations 5
DILUPBiCGStab:  Solving for Uy, Initial residual = 0.12468, Final residual = 0.000558184, No Iterations 5
DILUPBiCGStab:  Solving for Uz, Initial residual = 0.577256, Final residual = 0.00324599, No Iterations 5
[INFO] MomentumPredictor: 156.348 [ms]
[INFO] MatrixAssemblyPI: 20.463 [ms]
[INFO] AdjustPhi: 0.892 [ms]
[INFO] ConstrainPressure: 0.002 [ms]
[INFO] MatrixAssemblyPII: 6.36 [ms]
[OGL LOG][Proc: 0]: global_index_init: 0.016 [ms]
[OGL LOG][Proc: 0]p_local_coeffs: call_update: 0 [ms]
[OGL LOG][Proc: 0]p_non_local_coeffs: call_update: 0 [ms]
[OGL LOG][Proc: 0]p: update_local_matrix_data: 5.314 [ms]
[OGL LOG][Proc: 0]p: update_non_local_matrix_data: 0.216 [ms]
[OGL LOG][Proc: 0]p: regenerate_distributed_matrix: 11.593 [ms]
[OGL LOG][Proc: 0]p_matrix: call_update: 12.705 [ms]
[OGL LOG][Proc: 0]p_rhs: call_update: 0.357 [ms]
[OGL LOG][Preconditioner.H:271] Generate preconditioner GISAI SparsityPower 1
[OGL LOG][Proc: 0]p: init_precond: 18.445 [ms]
[OGL LOG][StoppingCriterion.H:239] Creating stopping criterion with minIter 258 frequency 13
[OGL LOG][Proc: 0]p: generate_solver: 0.013 [ms]
[OGL LOG][Proc: 0]p: solve: 998.426 [ms]
[OGL LOG][Proc: 0]p: copy_x_back: 0.355 [ms]
[OGL LOG][lduLduBase.H:330] 
Statistics:
	Time per iteration: 2321 [mu s]
	Time per residual norm calculation: 1251.000000 [mu s]
	Time per iteration and DOF: 2.321000 [ns]
	Retrieve results bandwidth 2.816000 [GByte/s]
[OGL LOG][Proc: 0]p: solve_multi_gpu: 1031.89 [ms]
GISAIcudaGKOCG:  Solving for p, Initial residual = 0.632485, Final residual = 8.81217e-05, No Iterations 430
[INFO] SolveP: 1039.09 [ms]
time step continuity errors : sum local = 2.01838e-08, global = 4.35904e-21, cumulative = -6.31892e-21
[INFO] ContinuityError: 3.67 [ms]
[INFO] CorrectBoundary: 0.093 [ms]
[INFO] PISOStep: 1078.59 [ms]
[INFO] MatrixAssemblyPI: 20.243 [ms]
[INFO] AdjustPhi: 1.982 [ms]
[INFO] ConstrainPressure: 0.002 [ms]
[INFO] MatrixAssemblyPII: 6.288 [ms]
[OGL LOG][Proc: 0]: global_index_init: 0.023 [ms]
[OGL LOG][Proc: 0]p_local_coeffs: call_update: 0 [ms]
[OGL LOG][Proc: 0]p_non_local_coeffs: call_update: 0 [ms]
[OGL LOG][Proc: 0]p: update_local_matrix_data: 5.074 [ms]
[OGL LOG][Proc: 0]p: update_non_local_matrix_data: 0.223 [ms]
[OGL LOG][Proc: 0]p: regenerate_distributed_matrix: 12.432 [ms]
[OGL LOG][Proc: 0]p_matrix: call_update: 13.254 [ms]
[OGL LOG][Proc: 0]p_rhs: call_update: 0.573 [ms]
[OGL LOG][Preconditioner.H:271] Generate preconditioner GISAI SparsityPower 1
[OGL LOG][Proc: 0]p: init_precond: 18.411 [ms]
[OGL LOG][StoppingCriterion.H:239] Creating stopping criterion with minIter 258 frequency 13
[OGL LOG][Proc: 0]p: generate_solver: 0.013 [ms]
[OGL LOG][Proc: 0]p: solve: 997.389 [ms]
[OGL LOG][Proc: 0]p: copy_x_back: 0.363 [ms]
[OGL LOG][lduLduBase.H:330] 
Statistics:
	Time per iteration: 2319 [mu s]
	Time per residual norm calculation: 1259.000000 [mu s]
	Time per iteration and DOF: 2.319000 [ns]
	Retrieve results bandwidth 2.754000 [GByte/s]
[OGL LOG][Proc: 0]p: solve_multi_gpu: 1031.86 [ms]
GISAIcudaGKOCG:  Solving for p, Initial residual = 0.579905, Final residual = 4.87615e-05, No Iterations 430
[INFO] SolveP: 1038.85 [ms]
time step continuity errors : sum local = 1.08725e-08, global = 1.73776e-21, cumulative = -4.58116e-21
[INFO] ContinuityError: 2.416 [ms]
[INFO] CorrectBoundary: 0.094 [ms]
[INFO] PISOStep: 1078.49 [ms]
[INFO] TimeStep: 2334.93 [ms]
ExecutionTime = 47.26 s  ClockTime = 49 s

Time = 0.002

Courant Number mean: 0.0388943 max: 0.452949
[INFO] MatrixAssemblyU: 18.609 [ms]
DILUPBiCGStab:  Solving for Ux, Initial residual = 0.031896, Final residual = 0.000167506, No Iterations 5
DILUPBiCGStab:  Solving for Uy, Initial residual = 0.0813692, Final residual = 0.000384969, No Iterations 5
DILUPBiCGStab:  Solving for Uz, Initial residual = 0.274391, Final residual = 0.00118467, No Iterations 5
[INFO] MomentumPredictor: 157.034 [ms]
[INFO] MatrixAssemblyPI: 20.372 [ms]
[INFO] AdjustPhi: 0.902 [ms]
[INFO] ConstrainPressure: 0.002 [ms]
[INFO] MatrixAssemblyPII: 6.408 [ms]
[OGL LOG][Proc: 0]: global_index_init: 0.018 [ms]
[OGL LOG][Proc: 0]p_local_coeffs: call_update: 0 [ms]
[OGL LOG][Proc: 0]p_non_local_coeffs: call_update: 0 [ms]
[OGL LOG][Proc: 0]p: update_local_matrix_data: 5.209 [ms]
[OGL LOG][Proc: 0]p: update_non_local_matrix_data: 0.217 [ms]
[OGL LOG][Proc: 0]p: regenerate_distributed_matrix: 12.274 [ms]
[OGL LOG][Proc: 0]p_matrix: call_update: 13.02 [ms]
[OGL LOG][Proc: 0]p_rhs: call_update: 0.468 [ms]
[OGL LOG][Preconditioner.H:271] Generate preconditioner GISAI SparsityPower 1
[OGL LOG][Proc: 0]p: init_precond: 18.329 [ms]
[OGL LOG][StoppingCriterion.H:239] Creating stopping criterion with minIter 258 frequency 13
[OGL LOG][Proc: 0]p: generate_solver: 0.016 [ms]
[OGL LOG][Proc: 0]p: solve: 997.13 [ms]
[OGL LOG][Proc: 0]p: copy_x_back: 0.379 [ms]
[OGL LOG][lduLduBase.H:330] 
Statistics:
	Time per iteration: 2318 [mu s]
	Time per residual norm calculation: 1254.000000 [mu s]
	Time per iteration and DOF: 2.318000 [ns]
	Retrieve results bandwidth 2.638000 [GByte/s]
[OGL LOG][Proc: 0]p: solve_multi_gpu: 1030.69 [ms]
GISAIcudaGKOCG:  Solving for p, Initial residual = 0.412408, Final residual = 5.39991e-05, No Iterations 430
[INFO] SolveP: 1037.96 [ms]
time step continuity errors : sum local = 1.05593e-08, global = -5.68893e-21, cumulative = -1.02701e-20
[INFO] ContinuityError: 4.074 [ms]
[INFO] CorrectBoundary: 0.621 [ms]
[INFO] PISOStep: 1078.21 [ms]
[INFO] MatrixAssemblyPI: 19.792 [ms]
[INFO] AdjustPhi: 1.893 [ms]
[INFO] ConstrainPressure: 0.002 [ms]
[INFO] MatrixAssemblyPII: 6.409 [ms]
[OGL LOG][Proc: 0]: global_index_init: 0.015 [ms]
[OGL LOG][Proc: 0]p_local_coeffs: call_update: 0 [ms]
[OGL LOG][Proc: 0]p_non_local_coeffs: call_update: 0 [ms]
[OGL LOG][Proc: 0]p: update_local_matrix_data: 5.155 [ms]
[OGL LOG][Proc: 0]p: update_non_local_matrix_data: 0.243 [ms]
[OGL LOG][Proc: 0]p: regenerate_distributed_matrix: 13.572 [ms]
[OGL LOG][Proc: 0]p_matrix: call_update: 14.595 [ms]
[OGL LOG][Proc: 0]p_rhs: call_update: 0.347 [ms]
[OGL LOG][Preconditioner.H:271] Generate preconditioner GISAI SparsityPower 1
[OGL LOG][Proc: 0]p: init_precond: 18.155 [ms]
[OGL LOG][StoppingCriterion.H:239] Creating stopping criterion with minIter 258 frequency 13
[OGL LOG][Proc: 0]p: generate_solver: 0.014 [ms]
[OGL LOG][Proc: 0]p: solve: 966.851 [ms]
[OGL LOG][Proc: 0]p: copy_x_back: 0.374 [ms]
[OGL LOG][lduLduBase.H:330] 
Statistics:
	Time per iteration: 2318 [mu s]
	Time per residual norm calculation: 1253.000000 [mu s]
	Time per iteration and DOF: 2.318000 [ns]
	Retrieve results bandwidth 2.673000 [GByte/s]
[OGL LOG][Proc: 0]p: solve_multi_gpu: 1001.91 [ms]
GISAIcudaGKOCG:  Solving for p, Initial residual = 0.350518, Final residual = 9.3131e-05, No Iterations 417
[INFO] SolveP: 1009.1 [ms]
time step continuity errors : sum local = 1.83957e-08, global = 2.91209e-21, cumulative = -7.358e-21
[INFO] ContinuityError: 3.757 [ms]
[INFO] CorrectBoundary: 0.093 [ms]
[INFO] PISOStep: 1049.31 [ms]
[INFO] TimeStep: 2305.91 [ms]
ExecutionTime = 49.56 s  ClockTime = 51 s

Time = 0.0025

Courant Number mean: 0.0439469 max: 0.459624
[INFO] MatrixAssemblyU: 18.692 [ms]
DILUPBiCGStab:  Solving for Ux, Initial residual = 0.0235047, Final residual = 0.000104802, No Iterations 5
DILUPBiCGStab:  Solving for Uy, Initial residual = 0.0515208, Final residual = 0.000235035, No Iterations 5
DILUPBiCGStab:  Solving for Uz, Initial residual = 0.0980777, Final residual = 0.000481175, No Iterations 5
[INFO] MomentumPredictor: 157.487 [ms]
[INFO] MatrixAssemblyPI: 20.455 [ms]
[INFO] AdjustPhi: 0.949 [ms]
[INFO] ConstrainPressure: 0.002 [ms]
[INFO] MatrixAssemblyPII: 6.382 [ms]
[OGL LOG][Proc: 0]: global_index_init: 0.023 [ms]
[OGL LOG][Proc: 0]p_local_coeffs: call_update: 0 [ms]
[OGL LOG][Proc: 0]p_non_local_coeffs: call_update: 0 [ms]
[OGL LOG][Proc: 0]p: update_local_matrix_data: 5.285 [ms]
[OGL LOG][Proc: 0]p: update_non_local_matrix_data: 0.236 [ms]
[OGL LOG][Proc: 0]p: regenerate_distributed_matrix: 12.625 [ms]
[OGL LOG][Proc: 0]p_matrix: call_update: 13.346 [ms]
[OGL LOG][Proc: 0]p_rhs: call_update: 0.66 [ms]
[OGL LOG][Preconditioner.H:271] Generate preconditioner GISAI SparsityPower 1
[OGL LOG][Proc: 0]p: init_precond: 16.909 [ms]
[OGL LOG][StoppingCriterion.H:239] Creating stopping criterion with minIter 250 frequency 12
[OGL LOG][Proc: 0]p: generate_solver: 0.014 [ms]
[OGL LOG][Proc: 0]p: solve: 949.896 [ms]
[OGL LOG][Proc: 0]p: copy_x_back: 0.354 [ms]
[OGL LOG][lduLduBase.H:330] 
Statistics:
	Time per iteration: 2322 [mu s]
	Time per residual norm calculation: 1249.000000 [mu s]
	Time per iteration and DOF: 2.322000 [ns]
	Retrieve results bandwidth 2.824000 [GByte/s]
[OGL LOG][Proc: 0]p: solve_multi_gpu: 982.64 [ms]
GISAIcudaGKOCG:  Solving for p, Initial residual = 0.314868, Final residual = 7.0234e-05, No Iterations 409
[INFO] SolveP: 990.481 [ms]
time step continuity errors : sum local = 1.13438e-08, global = 4.02939e-21, cumulative = -3.32861e-21
[INFO] ContinuityError: 2.393 [ms]
[INFO] CorrectBoundary: 0.153 [ms]
[INFO] PISOStep: 1028.78 [ms]
[INFO] MatrixAssemblyPI: 19.785 [ms]
[INFO] AdjustPhi: 0.925 [ms]
[INFO] ConstrainPressure: 0.002 [ms]
[INFO] MatrixAssemblyPII: 6.328 [ms]
[OGL LOG][Proc: 0]: global_index_init: 0.023 [ms]
[OGL LOG][Proc: 0]p_local_coeffs: call_update: 0 [ms]
[OGL LOG][Proc: 0]p_non_local_coeffs: call_update: 0 [ms]
[OGL LOG][Proc: 0]p: update_local_matrix_data: 5.181 [ms]
[OGL LOG][Proc: 0]p: update_non_local_matrix_data: 0.249 [ms]
[OGL LOG][Proc: 0]p: regenerate_distributed_matrix: 11.341 [ms]
[OGL LOG][Proc: 0]p_matrix: call_update: 12.209 [ms]
[OGL LOG][Proc: 0]p_rhs: call_update: 0.466 [ms]
[OGL LOG][Preconditioner.H:271] Generate preconditioner GISAI SparsityPower 1
[OGL LOG][Proc: 0]p: init_precond: 18.494 [ms]
[OGL LOG][StoppingCriterion.H:239] Creating stopping criterion with minIter 245 frequency 12
[OGL LOG][Proc: 0]p: generate_solver: 0.015 [ms]
[OGL LOG][Proc: 0]p: solve: 949.976 [ms]
[OGL LOG][Proc: 0]p: copy_x_back: 0.381 [ms]
[OGL LOG][lduLduBase.H:330] 
Statistics:
	Time per iteration: 2322 [mu s]
	Time per residual norm calculation: 1256.000000 [mu s]
	Time per iteration and DOF: 2.322000 [ns]
	Retrieve results bandwidth 2.624000 [GByte/s]
[OGL LOG][Proc: 0]p: solve_multi_gpu: 983.117 [ms]
GISAIcudaGKOCG:  Solving for p, Initial residual = 0.269361, Final residual = 6.54725e-05, No Iterations 409
[INFO] SolveP: 990.457 [ms]
time step continuity errors : sum local = 1.04965e-08, global = -6.27557e-21, cumulative = -9.60419e-21
[INFO] ContinuityError: 4.558 [ms]
[INFO] CorrectBoundary: 0.555 [ms]
[INFO] PISOStep: 1031.07 [ms]
[INFO] TimeStep: 2238.85 [ms]
ExecutionTime = 51.79 s  ClockTime = 53 s

Time = 0.003

Courant Number mean: 0.047987 max: 0.463866
[INFO] MatrixAssemblyU: 18.433 [ms]
DILUPBiCGStab:  Solving for Ux, Initial residual = 0.0178878, Final residual = 7.93721e-05, No Iterations 5
DILUPBiCGStab:  Solving for Uy, Initial residual = 0.0401315, Final residual = 0.000115984, No Iterations 5
DILUPBiCGStab:  Solving for Uz, Initial residual = 0.0854591, Final residual = 0.000400618, No Iterations 5
[INFO] MomentumPredictor: 158.298 [ms]
[INFO] MatrixAssemblyPI: 20.27 [ms]
[INFO] AdjustPhi: 0.95 [ms]
[INFO] ConstrainPressure: 0.002 [ms]
[INFO] MatrixAssemblyPII: 6.319 [ms]
[OGL LOG][Proc: 0]: global_index_init: 0.034 [ms]
[OGL LOG][Proc: 0]p_local_coeffs: call_update: 0 [ms]
[OGL LOG][Proc: 0]p_non_local_coeffs: call_update: 0 [ms]
[OGL LOG][Proc: 0]p: update_local_matrix_data: 5.145 [ms]
[OGL LOG][Proc: 0]p: update_non_local_matrix_data: 0.248 [ms]
[OGL LOG][Proc: 0]p: regenerate_distributed_matrix: 13.041 [ms]
[OGL LOG][Proc: 0]p_matrix: call_update: 13.839 [ms]
[OGL LOG][Proc: 0]p_rhs: call_update: 0.407 [ms]
[OGL LOG][Preconditioner.H:271] Generate preconditioner GISAI SparsityPower 1
[OGL LOG][Proc: 0]p: init_precond: 17.465 [ms]
[OGL LOG][StoppingCriterion.H:239] Creating stopping criterion with minIter 245 frequency 12
[OGL LOG][Proc: 0]p: generate_solver: 0.013 [ms]
[OGL LOG][Proc: 0]p: solve: 953.78 [ms]
[OGL LOG][Proc: 0]p: copy_x_back: 0.59 [ms]
[OGL LOG][lduLduBase.H:330] 
Statistics:
	Time per iteration: 2331 [mu s]
	Time per residual norm calculation: 1258.000000 [mu s]
	Time per iteration and DOF: 2.331000 [ns]
	Retrieve results bandwidth 1.694000 [GByte/s]
[OGL LOG][Proc: 0]p: solve_multi_gpu: 987.853 [ms]
GISAIcudaGKOCG:  Solving for p, Initial residual = 0.196907, Final residual = 6.44431e-05, No Iterations 409
[INFO] SolveP: 994.692 [ms]
time step continuity errors : sum local = 1.00494e-08, global = -3.18373e-21, cumulative = -1.27879e-20
[INFO] ContinuityError: 2.593 [ms]
[INFO] CorrectBoundary: 0.179 [ms]
[INFO] PISOStep: 1035.43 [ms]
[INFO] MatrixAssemblyPI: 21.235 [ms]
[INFO] AdjustPhi: 0.986 [ms]
[INFO] ConstrainPressure: 0.002 [ms]
[INFO] MatrixAssemblyPII: 6.691 [ms]
[OGL LOG][Proc: 0]: global_index_init: 0.017 [ms]
[OGL LOG][Proc: 0]p_local_coeffs: call_update: 0 [ms]
[OGL LOG][Proc: 0]p_non_local_coeffs: call_update: 0 [ms]
[OGL LOG][Proc: 0]p: update_local_matrix_data: 5.152 [ms]
[OGL LOG][Proc: 0]p: update_non_local_matrix_data: 0.245 [ms]
[OGL LOG][Proc: 0]p: regenerate_distributed_matrix: 13.084 [ms]
[OGL LOG][Proc: 0]p_matrix: call_update: 14.197 [ms]
[OGL LOG][Proc: 0]p_rhs: call_update: 0.217 [ms]
[OGL LOG][Preconditioner.H:271] Generate preconditioner GISAI SparsityPower 1
[OGL LOG][Proc: 0]p: init_precond: 18.308 [ms]
[OGL LOG][StoppingCriterion.H:239] Creating stopping criterion with minIter 245 frequency 12
[OGL LOG][Proc: 0]p: generate_solver: 0.013 [ms]
[OGL LOG][Proc: 0]p: solve: 949.396 [ms]
[OGL LOG][Proc: 0]p: copy_x_back: 0.362 [ms]
[OGL LOG][lduLduBase.H:330] 
Statistics:
	Time per iteration: 2321 [mu s]
	Time per residual norm calculation: 1249.000000 [mu s]
	Time per iteration and DOF: 2.321000 [ns]
	Retrieve results bandwidth 2.762000 [GByte/s]
[OGL LOG][Proc: 0]p: solve_multi_gpu: 984.124 [ms]
GISAIcudaGKOCG:  Solving for p, Initial residual = 0.163668, Final residual = 5.70181e-05, No Iterations 409
[INFO] SolveP: 991.217 [ms]
time step continuity errors : sum local = 8.90006e-09, global = 4.44001e-21, cumulative = -8.34791e-21
[INFO] ContinuityError: 3.115 [ms]
[INFO] CorrectBoundary: 0.138 [ms]
[INFO] PISOStep: 1032.11 [ms]
[INFO] TimeStep: 2246.93 [ms]
ExecutionTime = 54.04 s  ClockTime = 56 s

Time = 0.0035

Courant Number mean: 0.0513959 max: 0.466746
[INFO] MatrixAssemblyU: 18.491 [ms]
DILUPBiCGStab:  Solving for Ux, Initial residual = 0.0146336, Final residual = 5.75416e-05, No Iterations 5
DILUPBiCGStab:  Solving for Uy, Initial residual = 0.0317659, Final residual = 9.93947e-05, No Iterations 5
DILUPBiCGStab:  Solving for Uz, Initial residual = 0.0567168, Final residual = 0.0002462, No Iterations 5
[INFO] MomentumPredictor: 157.427 [ms]
[INFO] MatrixAssemblyPI: 20.124 [ms]
[INFO] AdjustPhi: 0.994 [ms]
[INFO] ConstrainPressure: 0.002 [ms]
[INFO] MatrixAssemblyPII: 6.347 [ms]
[OGL LOG][Proc: 0]: global_index_init: 0.016 [ms]
[OGL LOG][Proc: 0]p_local_coeffs: call_update: 0 [ms]
[OGL LOG][Proc: 0]p_non_local_coeffs: call_update: 0 [ms]
[OGL LOG][Proc: 0]p: update_local_matrix_data: 5.153 [ms]
[OGL LOG][Proc: 0]p: update_non_local_matrix_data: 0.218 [ms]
[OGL LOG][Proc: 0]p: regenerate_distributed_matrix: 12.224 [ms]
[OGL LOG][Proc: 0]p_matrix: call_update: 12.977 [ms]
[OGL LOG][Proc: 0]p_rhs: call_update: 0.737 [ms]
[OGL LOG][Preconditioner.H:271] Generate preconditioner GISAI SparsityPower 1
[OGL LOG][Proc: 0]p: init_precond: 18.085 [ms]
[OGL LOG][StoppingCriterion.H:239] Creating stopping criterion with minIter 245 frequency 12
[OGL LOG][Proc: 0]p: generate_solver: 0.014 [ms]
[OGL LOG][Proc: 0]p: solve: 582.445 [ms]
[OGL LOG][Proc: 0]p: copy_x_back: 0.348 [ms]
[OGL LOG][lduLduBase.H:330] 
Statistics:
	Time per iteration: 2302 [mu s]
	Time per residual norm calculation: 1253.000000 [mu s]
	Time per iteration and DOF: 2.302000 [ns]
	Retrieve results bandwidth 2.873000 [GByte/s]
[OGL LOG][Proc: 0]p: solve_multi_gpu: 618.66 [ms]
GISAIcudaGKOCG:  Solving for p, Initial residual = 0.139342, Final residual = 7.76451e-05, No Iterations 253
[INFO] SolveP: 625.118 [ms]
time step continuity errors : sum local = 1.28119e-08, global = 7.81231e-21, cumulative = -5.35599e-22
[INFO] ContinuityError: 3.127 [ms]
[INFO] CorrectBoundary: 0.092 [ms]
[INFO] PISOStep: 663.676 [ms]
[INFO] MatrixAssemblyPI: 19.471 [ms]
[INFO] AdjustPhi: 1.35 [ms]
[INFO] ConstrainPressure: 0.002 [ms]
[INFO] MatrixAssemblyPII: 6.33 [ms]
[OGL LOG][Proc: 0]: global_index_init: 0.019 [ms]
[OGL LOG][Proc: 0]p_local_coeffs: call_update: 0 [ms]
[OGL LOG][Proc: 0]p_non_local_coeffs: call_update: 0 [ms]
[OGL LOG][Proc: 0]p: update_local_matrix_data: 6.807 [ms]
[OGL LOG][Proc: 0]p: update_non_local_matrix_data: 0.216 [ms]
[OGL LOG][Proc: 0]p: regenerate_distributed_matrix: 11.25 [ms]
[OGL LOG][Proc: 0]p_matrix: call_update: 12.701 [ms]
[OGL LOG][Proc: 0]p_rhs: call_update: 5.437 [ms]
[OGL LOG][Preconditioner.H:271] Generate preconditioner GISAI SparsityPower 1
[OGL LOG][Proc: 0]p: init_precond: 23.741 [ms]
[OGL LOG][StoppingCriterion.H:239] Creating stopping criterion with minIter 151 frequency 10
[OGL LOG][Proc: 0]p: generate_solver: 0.014 [ms]
[OGL LOG][Proc: 0]p: solve: 429.699 [ms]
[OGL LOG][Proc: 0]p: copy_x_back: 0.367 [ms]
[OGL LOG][lduLduBase.H:330] 
Statistics:
	Time per iteration: 2374 [mu s]
	Time per residual norm calculation: 1259.000000 [mu s]
	Time per iteration and DOF: 2.374000 [ns]
	Retrieve results bandwidth 2.724000 [GByte/s]
[OGL LOG][Proc: 0]p: solve_multi_gpu: 474.677 [ms]
GISAIcudaGKOCG:  Solving for p, Initial residual = 0.116456, Final residual = 8.59761e-05, No Iterations 181
[INFO] SolveP: 483.406 [ms]
time step continuity errors : sum local = 1.31138e-08, global = 4.24974e-21, cumulative = 3.71414e-21
[INFO] ContinuityError: 2.751 [ms]
[INFO] CorrectBoundary: 0.09 [ms]
[INFO] PISOStep: 521.538 [ms]
[INFO] TimeStep: 1364.13 [ms]
ExecutionTime = 55.38 s  ClockTime = 57 s

Time = 0.004

Courant Number mean: 0.0543347 max: 0.468955
[INFO] MatrixAssemblyU: 18.711 [ms]
DILUPBiCGStab:  Solving for Ux, Initial residual = 0.0122753, Final residual = 4.51113e-05, No Iterations 5
DILUPBiCGStab:  Solving for Uy, Initial residual = 0.0265323, Final residual = 6.38669e-05, No Iterations 5
DILUPBiCGStab:  Solving for Uz, Initial residual = 0.0510259, Final residual = 0.000170986, No Iterations 5
[INFO] MomentumPredictor: 157.492 [ms]
[INFO] MatrixAssemblyPI: 20.637 [ms]
[INFO] AdjustPhi: 0.899 [ms]
[INFO] ConstrainPressure: 0.003 [ms]
[INFO] MatrixAssemblyPII: 6.332 [ms]
[OGL LOG][Proc: 0]: global_index_init: 0.017 [ms]
[OGL LOG][Proc: 0]p_local_coeffs: call_update: 0 [ms]
[OGL LOG][Proc: 0]p_non_local_coeffs: call_update: 0 [ms]
[OGL LOG][Proc: 0]p: update_local_matrix_data: 5.432 [ms]
[OGL LOG][Proc: 0]p: update_non_local_matrix_data: 0.254 [ms]
[OGL LOG][Proc: 0]p: regenerate_distributed_matrix: 11.022 [ms]
[OGL LOG][Proc: 0]p_matrix: call_update: 11.45 [ms]
[OGL LOG][Proc: 0]p_rhs: call_update: 1.075 [ms]
[OGL LOG][Preconditioner.H:271] Generate preconditioner GISAI SparsityPower 1
[OGL LOG][Proc: 0]p: init_precond: 16.12 [ms]
[OGL LOG][StoppingCriterion.H:239] Creating stopping criterion with minIter 108 frequency 8
[OGL LOG][Proc: 0]p: generate_solver: 0.016 [ms]
[OGL LOG][Proc: 0]p: solve: 424.098 [ms]
[OGL LOG][Proc: 0]p: copy_x_back: 0.373 [ms]
[OGL LOG][lduLduBase.H:330] 
Statistics:
	Time per iteration: 2396 [mu s]
	Time per residual norm calculation: 1406.000000 [mu s]
	Time per iteration and DOF: 2.396000 [ns]
	Retrieve results bandwidth 2.680000 [GByte/s]
[OGL LOG][Proc: 0]p: solve_multi_gpu: 454.528 [ms]
GISAIcudaGKOCG:  Solving for p, Initial residual = 0.0909076, Final residual = 9.25096e-05, No Iterations 177
[INFO] SolveP: 461.949 [ms]
time step continuity errors : sum local = 1.3469e-08, global = 4.61815e-21, cumulative = 8.33229e-21
[INFO] ContinuityError: 3.11 [ms]
[INFO] CorrectBoundary: 0.188 [ms]
[INFO] PISOStep: 501.354 [ms]
[INFO] MatrixAssemblyPI: 19.914 [ms]
[INFO] AdjustPhi: 0.952 [ms]
[INFO] ConstrainPressure: 0.002 [ms]
[INFO] MatrixAssemblyPII: 6.241 [ms]
[OGL LOG][Proc: 0]: global_index_init: 0.013 [ms]
[OGL LOG][Proc: 0]p_local_coeffs: call_update: 0 [ms]
[OGL LOG][Proc: 0]p_non_local_coeffs: call_update: 0 [ms]
[OGL LOG][Proc: 0]p: update_local_matrix_data: 5.153 [ms]
[OGL LOG][Proc: 0]p: update_non_local_matrix_data: 0.209 [ms]
[OGL LOG][Proc: 0]p: regenerate_distributed_matrix: 13.081 [ms]
[OGL LOG][Proc: 0]p_matrix: call_update: 13.889 [ms]
[OGL LOG][Proc: 0]p_rhs: call_update: 0.456 [ms]
[OGL LOG][Preconditioner.H:271] Generate preconditioner GISAI SparsityPower 1
[OGL LOG][Proc: 0]p: init_precond: 17.989 [ms]
[OGL LOG][StoppingCriterion.H:239] Creating stopping criterion with minIter 106 frequency 8
[OGL LOG][Proc: 0]p: generate_solver: 0.014 [ms]
[OGL LOG][Proc: 0]p: solve: 421.198 [ms]
[OGL LOG][Proc: 0]p: copy_x_back: 0.393 [ms]
[OGL LOG][lduLduBase.H:330] 
Statistics:
	Time per iteration: 2379 [mu s]
	Time per residual norm calculation: 1252.000000 [mu s]
	Time per iteration and DOF: 2.379000 [ns]
	Retrieve results bandwidth 2.544000 [GByte/s]
[OGL LOG][Proc: 0]p: solve_multi_gpu: 455.55 [ms]
GISAIcudaGKOCG:  Solving for p, Initial residual = 0.0751843, Final residual = 8.41717e-05, No Iterations 177
[INFO] SolveP: 462.575 [ms]
time step continuity errors : sum local = 1.22464e-08, global = 2.4468e-21, cumulative = 1.07791e-20
[INFO] ContinuityError: 2.474 [ms]
[INFO] CorrectBoundary: 0.086 [ms]
[INFO] PISOStep: 501.013 [ms]
[INFO] TimeStep: 1181.33 [ms]
ExecutionTime = 56.55 s  ClockTime = 58 s

Time = 0.0045

Courant Number mean: 0.0569118 max: 0.470657
[INFO] MatrixAssemblyU: 18.812 [ms]
DILUPBiCGStab:  Solving for Ux, Initial residual = 0.0105281, Final residual = 3.57242e-05, No Iterations 5
DILUPBiCGStab:  Solving for Uy, Initial residual = 0.0226784, Final residual = 5.87598e-05, No Iterations 5
DILUPBiCGStab:  Solving for Uz, Initial residual = 0.0428535, Final residual = 0.000125712, No Iterations 5
[INFO] MomentumPredictor: 156.317 [ms]
[INFO] MatrixAssemblyPI: 20.378 [ms]
[INFO] AdjustPhi: 0.912 [ms]
[INFO] ConstrainPressure: 0.002 [ms]
[INFO] MatrixAssemblyPII: 6.3 [ms]
[OGL LOG][Proc: 0]: global_index_init: 0.018 [ms]
[OGL LOG][Proc: 0]p_local_coeffs: call_update: 0 [ms]
[OGL LOG][Proc: 0]p_non_local_coeffs: call_update: 0 [ms]
[OGL LOG][Proc: 0]p: update_local_matrix_data: 5.18 [ms]
[OGL LOG][Proc: 0]p: update_non_local_matrix_data: 0.218 [ms]
[OGL LOG][Proc: 0]p: regenerate_distributed_matrix: 11.363 [ms]
[OGL LOG][Proc: 0]p_matrix: call_update: 12.208 [ms]
[OGL LOG][Proc: 0]p_rhs: call_update: 0.42 [ms]
[OGL LOG][Preconditioner.H:271] Generate preconditioner GISAI SparsityPower 1
[OGL LOG][Proc: 0]p: init_precond: 18.459 [ms]
[OGL LOG][StoppingCriterion.H:239] Creating stopping criterion with minIter 106 frequency 8
[OGL LOG][Proc: 0]p: generate_solver: 0.014 [ms]
[OGL LOG][Proc: 0]p: solve: 420.385 [ms]
[OGL LOG][Proc: 0]p: copy_x_back: 0.357 [ms]
[OGL LOG][lduLduBase.H:330] 
Statistics:
	Time per iteration: 2375 [mu s]
	Time per residual norm calculation: 1256.000000 [mu s]
	Time per iteration and DOF: 2.375000 [ns]
	Retrieve results bandwidth 2.801000 [GByte/s]
[OGL LOG][Proc: 0]p: solve_multi_gpu: 453.554 [ms]
GISAIcudaGKOCG:  Solving for p, Initial residual = 0.066724, Final residual = 9.57931e-05, No Iterations 177
[INFO] SolveP: 460.29 [ms]
time step continuity errors : sum local = 1.54096e-08, global = 1.62634e-21, cumulative = 1.24054e-20
[INFO] ContinuityError: 2.387 [ms]
[INFO] CorrectBoundary: 0.091 [ms]
[INFO] PISOStep: 498.714 [ms]
[INFO] MatrixAssemblyPI: 19.605 [ms]
[INFO] AdjustPhi: 0.911 [ms]
[INFO] ConstrainPressure: 0.002 [ms]
[INFO] MatrixAssemblyPII: 6.318 [ms]
[OGL LOG][Proc: 0]: global_index_init: 0.014 [ms]
[OGL LOG][Proc: 0]p_local_coeffs: call_update: 0 [ms]
[OGL LOG][Proc: 0]p_non_local_coeffs: call_update: 0 [ms]
[OGL LOG][Proc: 0]p: update_local_matrix_data: 5.166 [ms]
[OGL LOG][Proc: 0]p: update_non_local_matrix_data: 0.226 [ms]
[OGL LOG][Proc: 0]p: regenerate_distributed_matrix: 11.596 [ms]
[OGL LOG][Proc: 0]p_matrix: call_update: 12.55 [ms]
[OGL LOG][Proc: 0]p_rhs: call_update: 0.38 [ms]
[OGL LOG][Preconditioner.H:271] Generate preconditioner GISAI SparsityPower 1
[OGL LOG][Proc: 0]p: init_precond: 18.546 [ms]
[OGL LOG][StoppingCriterion.H:239] Creating stopping criterion with minIter 106 frequency 8
[OGL LOG][Proc: 0]p: generate_solver: 0.014 [ms]
[OGL LOG][Proc: 0]p: solve: 421.192 [ms]
[OGL LOG][Proc: 0]p: copy_x_back: 0.381 [ms]
[OGL LOG][lduLduBase.H:330] 
Statistics:
	Time per iteration: 2379 [mu s]
	Time per residual norm calculation: 1256.000000 [mu s]
	Time per iteration and DOF: 2.379000 [ns]
	Retrieve results bandwidth 2.624000 [GByte/s]
[OGL LOG][Proc: 0]p: solve_multi_gpu: 454.596 [ms]
GISAIcudaGKOCG:  Solving for p, Initial residual = 0.0556444, Final residual = 7.89739e-05, No Iterations 177
[INFO] SolveP: 461.802 [ms]
time step continuity errors : sum local = 1.18879e-08, global = -2.22222e-21, cumulative = 1.01832e-20
[INFO] ContinuityError: 2.325 [ms]
[INFO] CorrectBoundary: 0.099 [ms]
[INFO] PISOStep: 499.163 [ms]
[INFO] TimeStep: 1175.76 [ms]
ExecutionTime = 57.72 s  ClockTime = 59 s

Time = 0.005

Courant Number mean: 0.0592067 max: 0.472052
[INFO] MatrixAssemblyU: 20.042 [ms]
DILUPBiCGStab:  Solving for Ux, Initial residual = 0.00921061, Final residual = 3.00587e-05, No Iterations 5
DILUPBiCGStab:  Solving for Uy, Initial residual = 0.0197481, Final residual = 4.40749e-05, No Iterations 5
DILUPBiCGStab:  Solving for Uz, Initial residual = 0.038083, Final residual = 0.000101984, No Iterations 5
[INFO] MomentumPredictor: 157.068 [ms]
[INFO] MatrixAssemblyPI: 20.403 [ms]
[INFO] AdjustPhi: 0.909 [ms]
[INFO] ConstrainPressure: 0.002 [ms]
[INFO] MatrixAssemblyPII: 6.421 [ms]
[OGL LOG][Proc: 0]: global_index_init: 0.016 [ms]
[OGL LOG][Proc: 0]p_local_coeffs: call_update: 0 [ms]
[OGL LOG][Proc: 0]p_non_local_coeffs: call_update: 0 [ms]
[OGL LOG][Proc: 0]p: update_local_matrix_data: 5.275 [ms]
[OGL LOG][Proc: 0]p: update_non_local_matrix_data: 0.218 [ms]
[OGL LOG][Proc: 0]p: regenerate_distributed_matrix: 14.425 [ms]
[OGL LOG][Proc: 0]p_matrix: call_update: 15.402 [ms]
[OGL LOG][Proc: 0]p_rhs: call_update: 0.356 [ms]
[OGL LOG][Preconditioner.H:271] Generate preconditioner GISAI SparsityPower 1
[OGL LOG][Proc: 0]p: init_precond: 18.527 [ms]
[OGL LOG][StoppingCriterion.H:239] Creating stopping criterion with minIter 106 frequency 8
[OGL LOG][Proc: 0]p: generate_solver: 0.015 [ms]
[OGL LOG][Proc: 0]p: solve: 420.926 [ms]
[OGL LOG][Proc: 0]p: copy_x_back: 0.369 [ms]
[OGL LOG][lduLduBase.H:330] 
Statistics:
	Time per iteration: 2378 [mu s]
	Time per residual norm calculation: 1107.000000 [mu s]
	Time per iteration and DOF: 2.378000 [ns]
	Retrieve results bandwidth 2.710000 [GByte/s]
[OGL LOG][Proc: 0]p: solve_multi_gpu: 457.057 [ms]
GISAIcudaGKOCG:  Solving for p, Initial residual = 0.0446987, Final residual = 8.70547e-05, No Iterations 177
[INFO] SolveP: 464.241 [ms]
time step continuity errors : sum local = 1.30568e-08, global = 3.19323e-21, cumulative = 1.33764e-20
[INFO] ContinuityError: 3.038 [ms]
[INFO] CorrectBoundary: 0.105 [ms]
[INFO] PISOStep: 504.158 [ms]
[INFO] MatrixAssemblyPI: 21.942 [ms]
[INFO] AdjustPhi: 6.754 [ms]
[INFO] ConstrainPressure: 0.002 [ms]
[INFO] MatrixAssemblyPII: 7.393 [ms]
[OGL LOG][Proc: 0]: global_index_init: 2.696 [ms]
[OGL LOG][Proc: 0]p_local_coeffs: call_update: 0 [ms]
[OGL LOG][Proc: 0]p_non_local_coeffs: call_update: 0 [ms]
[OGL LOG][Proc: 0]p: update_local_matrix_data: 4.945 [ms]
[OGL LOG][Proc: 0]p: update_non_local_matrix_data: 0.259 [ms]
[OGL LOG][Proc: 0]p: regenerate_distributed_matrix: 14.192 [ms]
[OGL LOG][Proc: 0]p_matrix: call_update: 14.926 [ms]
[OGL LOG][Proc: 0]p_rhs: call_update: 0.563 [ms]
[OGL LOG][Preconditioner.H:271] Generate preconditioner GISAI SparsityPower 1
[OGL LOG][Proc: 0]p: init_precond: 18.632 [ms]
[OGL LOG][StoppingCriterion.H:239] Creating stopping criterion with minIter 106 frequency 5
[OGL LOG][Proc: 0]p: generate_solver: 0.014 [ms]
[OGL LOG][Proc: 0]p: solve: 425.541 [ms]
[OGL LOG][Proc: 0]p: copy_x_back: 0.353 [ms]
[OGL LOG][lduLduBase.H:330] 
Statistics:
	Time per iteration: 2417 [mu s]
	Time per residual norm calculation: 1253.000000 [mu s]
	Time per iteration and DOF: 2.417000 [ns]
	Retrieve results bandwidth 2.832000 [GByte/s]
[OGL LOG][Proc: 0]p: solve_multi_gpu: 462.28 [ms]
GISAIcudaGKOCG:  Solving for p, Initial residual = 0.0377013, Final residual = 8.76081e-05, No Iterations 176
[INFO] SolveP: 471.886 [ms]
time step continuity errors : sum local = 1.24879e-08, global = 3.10552e-21, cumulative = 1.6482e-20
[INFO] ContinuityError: 3.017 [ms]
[INFO] CorrectBoundary: 1.018 [ms]
[INFO] PISOStep: 522.13 [ms]
[INFO] TimeStep: 1206.09 [ms]
ExecutionTime = 58.93 s  ClockTime = 60 s

Time = 0.0055

Courant Number mean: 0.0612662 max: 0.473198
[INFO] MatrixAssemblyU: 18.191 [ms]
DILUPBiCGStab:  Solving for Ux, Initial residual = 0.00814038, Final residual = 2.51944e-05, No Iterations 5
DILUPBiCGStab:  Solving for Uy, Initial residual = 0.0174519, Final residual = 3.94715e-05, No Iterations 5
DILUPBiCGStab:  Solving for Uz, Initial residual = 0.0343241, Final residual = 8.64043e-05, No Iterations 5
[INFO] MomentumPredictor: 162.22 [ms]
[INFO] MatrixAssemblyPI: 20.277 [ms]
[INFO] AdjustPhi: 0.895 [ms]
[INFO] ConstrainPressure: 0.002 [ms]
[INFO] MatrixAssemblyPII: 6.324 [ms]
[OGL LOG][Proc: 0]: global_index_init: 0.015 [ms]
[OGL LOG][Proc: 0]p_local_coeffs: call_update: 0 [ms]
[OGL LOG][Proc: 0]p_non_local_coeffs: call_update: 0 [ms]
[OGL LOG][Proc: 0]p: update_local_matrix_data: 5.206 [ms]
[OGL LOG][Proc: 0]p: update_non_local_matrix_data: 0.216 [ms]
[OGL LOG][Proc: 0]p: regenerate_distributed_matrix: 12.893 [ms]
[OGL LOG][Proc: 0]p_matrix: call_update: 13.685 [ms]
[OGL LOG][Proc: 0]p_rhs: call_update: 0.469 [ms]
[OGL LOG][Preconditioner.H:271] Generate preconditioner GISAI SparsityPower 1
[OGL LOG][Proc: 0]p: init_precond: 18.344 [ms]
[OGL LOG][StoppingCriterion.H:239] Creating stopping criterion with minIter 105 frequency 8
[OGL LOG][Proc: 0]p: generate_solver: 0.014 [ms]
[OGL LOG][Proc: 0]p: solve: 439.358 [ms]
[OGL LOG][Proc: 0]p: copy_x_back: 0.358 [ms]
[OGL LOG][lduLduBase.H:330] 
Statistics:
	Time per iteration: 2374 [mu s]
	Time per residual norm calculation: 1103.000000 [mu s]
	Time per iteration and DOF: 2.374000 [ns]
	Retrieve results bandwidth 2.793000 [GByte/s]
[OGL LOG][Proc: 0]p: solve_multi_gpu: 473.331 [ms]
GISAIcudaGKOCG:  Solving for p, Initial residual = 0.0351301, Final residual = 9.14677e-05, No Iterations 185
[INFO] SolveP: 480.906 [ms]
time step continuity errors : sum local = 1.53539e-08, global = -4.32367e-21, cumulative = 1.21583e-20
[INFO] ContinuityError: 2.461 [ms]
[INFO] CorrectBoundary: 0.47 [ms]
[INFO] PISOStep: 519.261 [ms]
[INFO] MatrixAssemblyPI: 19.707 [ms]
[INFO] AdjustPhi: 0.924 [ms]
[INFO] ConstrainPressure: 0.002 [ms]
[INFO] MatrixAssemblyPII: 6.282 [ms]
[OGL LOG][Proc: 0]: global_index_init: 0.017 [ms]
[OGL LOG][Proc: 0]p_local_coeffs: call_update: 0 [ms]
[OGL LOG][Proc: 0]p_non_local_coeffs: call_update: 0 [ms]
[OGL LOG][Proc: 0]p: update_local_matrix_data: 5.156 [ms]
[OGL LOG][Proc: 0]p: update_non_local_matrix_data: 0.211 [ms]
[OGL LOG][Proc: 0]p: regenerate_distributed_matrix: 11.285 [ms]
[OGL LOG][Proc: 0]p_matrix: call_update: 12.198 [ms]
[OGL LOG][Proc: 0]p_rhs: call_update: 0.321 [ms]
[OGL LOG][Preconditioner.H:271] Generate preconditioner GISAI SparsityPower 1
[OGL LOG][Proc: 0]p: init_precond: 18.372 [ms]
[OGL LOG][StoppingCriterion.H:239] Creating stopping criterion with minIter 111 frequency 6
[OGL LOG][Proc: 0]p: generate_solver: 0.014 [ms]
[OGL LOG][Proc: 0]p: solve: 418.788 [ms]
[OGL LOG][Proc: 0]p: copy_x_back: 0.373 [ms]
[OGL LOG][lduLduBase.H:330] 
Statistics:
	Time per iteration: 2393 [mu s]
	Time per residual norm calculation: 1258.000000 [mu s]
	Time per iteration and DOF: 2.393000 [ns]
	Retrieve results bandwidth 2.680000 [GByte/s]
[OGL LOG][Proc: 0]p: solve_multi_gpu: 451.781 [ms]
GISAIcudaGKOCG:  Solving for p, Initial residual = 0.0298264, Final residual = 8.93196e-05, No Iterations 175
[INFO] SolveP: 458.558 [ms]
time step continuity errors : sum local = 1.34686e-08, global = 5.67043e-21, cumulative = 1.78287e-20
[INFO] ContinuityError: 2.754 [ms]
[INFO] CorrectBoundary: 0.092 [ms]
[INFO] PISOStep: 496.375 [ms]
[INFO] TimeStep: 1202.58 [ms]
ExecutionTime = 60.13 s  ClockTime = 62 s

Time = 0.006

Courant Number mean: 0.0631376 max: 0.474175
[INFO] MatrixAssemblyU: 18.754 [ms]
DILUPBiCGStab:  Solving for Ux, Initial residual = 0.00728081, Final residual = 2.208e-05, No Iterations 5
DILUPBiCGStab:  Solving for Uy, Initial residual = 0.0156027, Final residual = 3.40002e-05, No Iterations 5
DILUPBiCGStab:  Solving for Uz, Initial residual = 0.0310241, Final residual = 8.3037e-05, No Iterations 5
[INFO] MomentumPredictor: 156.656 [ms]
[INFO] MatrixAssemblyPI: 20.372 [ms]
[INFO] AdjustPhi: 0.892 [ms]
[INFO] ConstrainPressure: 0.002 [ms]
[INFO] MatrixAssemblyPII: 6.332 [ms]
[OGL LOG][Proc: 0]: global_index_init: 0.023 [ms]
[OGL LOG][Proc: 0]p_local_coeffs: call_update: 0 [ms]
[OGL LOG][Proc: 0]p_non_local_coeffs: call_update: 0 [ms]
[OGL LOG][Proc: 0]p: update_local_matrix_data: 5.267 [ms]
[OGL LOG][Proc: 0]p: update_non_local_matrix_data: 0.215 [ms]
[OGL LOG][Proc: 0]p: regenerate_distributed_matrix: 11.367 [ms]
[OGL LOG][Proc: 0]p_matrix: call_update: 12.412 [ms]
[OGL LOG][Proc: 0]p_rhs: call_update: 0.297 [ms]
[OGL LOG][Preconditioner.H:271] Generate preconditioner GISAI SparsityPower 1
[OGL LOG][Proc: 0]p: init_precond: 18.627 [ms]
[OGL LOG][StoppingCriterion.H:239] Creating stopping criterion with minIter 105 frequency 8
[OGL LOG][Proc: 0]p: generate_solver: 0.015 [ms]
[OGL LOG][Proc: 0]p: solve: 420.737 [ms]
[OGL LOG][Proc: 0]p: copy_x_back: 0.354 [ms]
[OGL LOG][lduLduBase.H:330] 
Statistics:
	Time per iteration: 2377 [mu s]
	Time per residual norm calculation: 1253.000000 [mu s]
	Time per iteration and DOF: 2.377000 [ns]
	Retrieve results bandwidth 2.824000 [GByte/s]
[OGL LOG][Proc: 0]p: solve_multi_gpu: 453.822 [ms]
GISAIcudaGKOCG:  Solving for p, Initial residual = 0.0252713, Final residual = 9.15847e-05, No Iterations 177
[INFO] SolveP: 461.034 [ms]
time step continuity errors : sum local = 1.46959e-08, global = -2.74417e-21, cumulative = 1.50845e-20
[INFO] ContinuityError: 2.344 [ms]
[INFO] CorrectBoundary: 0.098 [ms]
[INFO] PISOStep: 499.173 [ms]
[INFO] MatrixAssemblyPI: 19.605 [ms]
[INFO] AdjustPhi: 0.928 [ms]
[INFO] ConstrainPressure: 0.002 [ms]
[INFO] MatrixAssemblyPII: 6.329 [ms]
[OGL LOG][Proc: 0]: global_index_init: 0.017 [ms]
[OGL LOG][Proc: 0]p_local_coeffs: call_update: 0 [ms]
[OGL LOG][Proc: 0]p_non_local_coeffs: call_update: 0 [ms]
[OGL LOG][Proc: 0]p: update_local_matrix_data: 5.24 [ms]
[OGL LOG][Proc: 0]p: update_non_local_matrix_data: 0.216 [ms]
[OGL LOG][Proc: 0]p: regenerate_distributed_matrix: 11.316 [ms]
[OGL LOG][Proc: 0]p_matrix: call_update: 12.305 [ms]
[OGL LOG][Proc: 0]p_rhs: call_update: 0.319 [ms]
[OGL LOG][Preconditioner.H:271] Generate preconditioner GISAI SparsityPower 1
[OGL LOG][Proc: 0]p: init_precond: 18.464 [ms]
[OGL LOG][StoppingCriterion.H:239] Creating stopping criterion with minIter 106 frequency 8
[OGL LOG][Proc: 0]p: generate_solver: 0.014 [ms]
[OGL LOG][Proc: 0]p: solve: 421.028 [ms]
[OGL LOG][Proc: 0]p: copy_x_back: 0.376 [ms]
[OGL LOG][lduLduBase.H:330] 
Statistics:
	Time per iteration: 2378 [mu s]
	Time per residual norm calculation: 1397.000000 [mu s]
	Time per iteration and DOF: 2.378000 [ns]
	Retrieve results bandwidth 2.659000 [GByte/s]
[OGL LOG][Proc: 0]p: solve_multi_gpu: 454.063 [ms]
GISAIcudaGKOCG:  Solving for p, Initial residual = 0.0220321, Final residual = 7.56258e-05, No Iterations 177
[INFO] SolveP: 461.185 [ms]
time step continuity errors : sum local = 1.09744e-08, global = 3.90703e-21, cumulative = 1.89916e-20
[INFO] ContinuityError: 2.397 [ms]
[INFO] CorrectBoundary: 0.087 [ms]
[INFO] PISOStep: 498.656 [ms]
[INFO] TimeStep: 1175.95 [ms]
ExecutionTime = 61.3 s  ClockTime = 63 s

Time = 0.0065

Courant Number mean: 0.0648411 max: 0.47501
[INFO] MatrixAssemblyU: 18.959 [ms]
DILUPBiCGStab:  Solving for Ux, Initial residual = 0.00656677, Final residual = 1.92092e-05, No Iterations 5
DILUPBiCGStab:  Solving for Uy, Initial residual = 0.0140545, Final residual = 3.08152e-05, No Iterations 5
DILUPBiCGStab:  Solving for Uz, Initial residual = 0.028736, Final residual = 7.94362e-05, No Iterations 5
[INFO] MomentumPredictor: 157.01 [ms]
[INFO] MatrixAssemblyPI: 20.435 [ms]
[INFO] AdjustPhi: 0.914 [ms]
[INFO] ConstrainPressure: 0.002 [ms]
[INFO] MatrixAssemblyPII: 6.317 [ms]
[OGL LOG][Proc: 0]: global_index_init: 0.023 [ms]
[OGL LOG][Proc: 0]p_local_coeffs: call_update: 0 [ms]
[OGL LOG][Proc: 0]p_non_local_coeffs: call_update: 0 [ms]
[OGL LOG][Proc: 0]p: update_local_matrix_data: 5.264 [ms]
[OGL LOG][Proc: 0]p: update_non_local_matrix_data: 0.221 [ms]
[OGL LOG][Proc: 0]p: regenerate_distributed_matrix: 11.3 [ms]
[OGL LOG][Proc: 0]p_matrix: call_update: 12.192 [ms]
[OGL LOG][Proc: 0]p_rhs: call_update: 0.352 [ms]
[OGL LOG][Preconditioner.H:271] Generate preconditioner GISAI SparsityPower 1
[OGL LOG][Proc: 0]p: init_precond: 17.834 [ms]
[OGL LOG][StoppingCriterion.H:239] Creating stopping criterion with minIter 106 frequency 8
[OGL LOG][Proc: 0]p: generate_solver: 0.014 [ms]
[OGL LOG][Proc: 0]p: solve: 921.581 [ms]
[OGL LOG][Proc: 0]p: copy_x_back: 0.359 [ms]
[OGL LOG][lduLduBase.H:330] 
Statistics:
	Time per iteration: 2393 [mu s]
	Time per residual norm calculation: 1255.000000 [mu s]
	Time per iteration and DOF: 2.393000 [ns]
	Retrieve results bandwidth 2.785000 [GByte/s]
[OGL LOG][Proc: 0]p: solve_multi_gpu: 953.906 [ms]
GISAIcudaGKOCG:  Solving for p, Initial residual = 0.0210895, Final residual = 8.88731e-05, No Iterations 385
[INFO] SolveP: 960.99 [ms]
time step continuity errors : sum local = 1.24446e-08, global = -2.0355e-21, cumulative = 1.69561e-20
[INFO] ContinuityError: 2.471 [ms]
[INFO] CorrectBoundary: 0.09 [ms]
[INFO] PISOStep: 999.269 [ms]
[INFO] MatrixAssemblyPI: 19.674 [ms]
[INFO] AdjustPhi: 0.914 [ms]
[INFO] ConstrainPressure: 0.002 [ms]
[INFO] MatrixAssemblyPII: 6.308 [ms]
[OGL LOG][Proc: 0]: global_index_init: 0.013 [ms]
[OGL LOG][Proc: 0]p_local_coeffs: call_update: 0 [ms]
[OGL LOG][Proc: 0]p_non_local_coeffs: call_update: 0 [ms]
[OGL LOG][Proc: 0]p: update_local_matrix_data: 5.14 [ms]
[OGL LOG][Proc: 0]p: update_non_local_matrix_data: 0.231 [ms]
[OGL LOG][Proc: 0]p: regenerate_distributed_matrix: 11.261 [ms]
[OGL LOG][Proc: 0]p_matrix: call_update: 12.256 [ms]
[OGL LOG][Proc: 0]p_rhs: call_update: 0.271 [ms]
[OGL LOG][Preconditioner.H:271] Generate preconditioner GISAI SparsityPower 1
[OGL LOG][Proc: 0]p: init_precond: 18.111 [ms]
[OGL LOG][StoppingCriterion.H:239] Creating stopping criterion with minIter 231 frequency 12
[OGL LOG][Proc: 0]p: generate_solver: 0.013 [ms]
[OGL LOG][Proc: 0]p: solve: 921.967 [ms]
[OGL LOG][Proc: 0]p: copy_x_back: 0.374 [ms]
[OGL LOG][lduLduBase.H:330] 
Statistics:
	Time per iteration: 2322 [mu s]
	Time per residual norm calculation: 1112.000000 [mu s]
	Time per iteration and DOF: 2.322000 [ns]
	Retrieve results bandwidth 2.673000 [GByte/s]
[OGL LOG][Proc: 0]p: solve_multi_gpu: 954.203 [ms]
GISAIcudaGKOCG:  Solving for p, Initial residual = 0.0185785, Final residual = 3.59642e-05, No Iterations 397
[INFO] SolveP: 961.609 [ms]
time step continuity errors : sum local = 5.0383e-09, global = -1.84781e-21, cumulative = 1.51083e-20
[INFO] ContinuityError: 2.4 [ms]
[INFO] CorrectBoundary: 0.1 [ms]
[INFO] PISOStep: 999.197 [ms]
[INFO] TimeStep: 2177.19 [ms]
ExecutionTime = 63.48 s  ClockTime = 65 s

Time = 0.007

Courant Number mean: 0.0664085 max: 0.475741
[INFO] MatrixAssemblyU: 18.863 [ms]
DILUPBiCGStab:  Solving for Ux, Initial residual = 0.00596145, Final residual = 1.71904e-05, No Iterations 5
DILUPBiCGStab:  Solving for Uy, Initial residual = 0.0127622, Final residual = 2.75436e-05, No Iterations 5
DILUPBiCGStab:  Solving for Uz, Initial residual = 0.0256539, Final residual = 5.8386e-05, No Iterations 5
[INFO] MomentumPredictor: 158.173 [ms]
[INFO] MatrixAssemblyPI: 20.5 [ms]
[INFO] AdjustPhi: 0.916 [ms]
[INFO] ConstrainPressure: 0.002 [ms]
[INFO] MatrixAssemblyPII: 6.477 [ms]
[OGL LOG][Proc: 0]: global_index_init: 0.016 [ms]
[OGL LOG][Proc: 0]p_local_coeffs: call_update: 0 [ms]
[OGL LOG][Proc: 0]p_non_local_coeffs: call_update: 0 [ms]
[OGL LOG][Proc: 0]p: update_local_matrix_data: 5.192 [ms]
[OGL LOG][Proc: 0]p: update_non_local_matrix_data: 0.24 [ms]
[OGL LOG][Proc: 0]p: regenerate_distributed_matrix: 11.379 [ms]
[OGL LOG][Proc: 0]p_matrix: call_update: 12.518 [ms]
[OGL LOG][Proc: 0]p_rhs: call_update: 0.299 [ms]
[OGL LOG][Preconditioner.H:271] Generate preconditioner GISAI SparsityPower 1
[OGL LOG][Proc: 0]p: init_precond: 18.573 [ms]
[OGL LOG][StoppingCriterion.H:239] Creating stopping criterion with minIter 238 frequency 8
[OGL LOG][Proc: 0]p: generate_solver: 0.014 [ms]
[OGL LOG][Proc: 0]p: solve: 902.468 [ms]
[OGL LOG][Proc: 0]p: copy_x_back: 0.367 [ms]
[OGL LOG][lduLduBase.H:330] 
Statistics:
	Time per iteration: 2344 [mu s]
	Time per residual norm calculation: 1253.000000 [mu s]
	Time per iteration and DOF: 2.344000 [ns]
	Retrieve results bandwidth 2.724000 [GByte/s]
[OGL LOG][Proc: 0]p: solve_multi_gpu: 935.605 [ms]
GISAIcudaGKOCG:  Solving for p, Initial residual = 0.0162811, Final residual = 6.97625e-05, No Iterations 385
[INFO] SolveP: 942.915 [ms]
time step continuity errors : sum local = 9.75987e-09, global = -6.87621e-21, cumulative = 8.23206e-21
[INFO] ContinuityError: 3.805 [ms]
[INFO] CorrectBoundary: 0.09 [ms]
[INFO] PISOStep: 983.066 [ms]
[INFO] MatrixAssemblyPI: 20.236 [ms]
[INFO] AdjustPhi: 1.827 [ms]
[INFO] ConstrainPressure: 0.002 [ms]
[INFO] MatrixAssemblyPII: 6.266 [ms]
[OGL LOG][Proc: 0]: global_index_init: 0.019 [ms]
[OGL LOG][Proc: 0]p_local_coeffs: call_update: 0 [ms]
[OGL LOG][Proc: 0]p_non_local_coeffs: call_update: 0 [ms]
[OGL LOG][Proc: 0]p: update_local_matrix_data: 5.133 [ms]
[OGL LOG][Proc: 0]p: update_non_local_matrix_data: 0.252 [ms]
[OGL LOG][Proc: 0]p: regenerate_distributed_matrix: 12.726 [ms]
[OGL LOG][Proc: 0]p_matrix: call_update: 13.618 [ms]
[OGL LOG][Proc: 0]p_rhs: call_update: 0.309 [ms]
[OGL LOG][Preconditioner.H:271] Generate preconditioner GISAI SparsityPower 1
[OGL LOG][Proc: 0]p: init_precond: 18.396 [ms]
[OGL LOG][StoppingCriterion.H:239] Creating stopping criterion with minIter 231 frequency 12
[OGL LOG][Proc: 0]p: generate_solver: 0.021 [ms]
[OGL LOG][Proc: 0]p: solve: 555.108 [ms]
[OGL LOG][Proc: 0]p: copy_x_back: 0.363 [ms]
[OGL LOG][lduLduBase.H:330] 
Statistics:
	Time per iteration: 2303 [mu s]
	Time per residual norm calculation: 1108.000000 [mu s]
	Time per iteration and DOF: 2.303000 [ns]
	Retrieve results bandwidth 2.754000 [GByte/s]
[OGL LOG][Proc: 0]p: solve_multi_gpu: 588.829 [ms]
GISAIcudaGKOCG:  Solving for p, Initial residual = 0.0147203, Final residual = 9.64205e-05, No Iterations 241
[INFO] SolveP: 596.566 [ms]
time step continuity errors : sum local = 1.42382e-08, global = 1.32856e-21, cumulative = 9.56061e-21
[INFO] ContinuityError: 2.448 [ms]
[INFO] CorrectBoundary: 0.088 [ms]
[INFO] PISOStep: 635.985 [ms]
[INFO] TimeStep: 1798.86 [ms]
ExecutionTime = 65.27 s  ClockTime = 67 s

Time = 0.0075

Courant Number mean: 0.0678549 max: 0.476379
[INFO] MatrixAssemblyU: 18.765 [ms]
DILUPBiCGStab:  Solving for Ux, Initial residual = 0.00543951, Final residual = 1.52827e-05, No Iterations 5
DILUPBiCGStab:  Solving for Uy, Initial residual = 0.0116619, Final residual = 2.50594e-05, No Iterations 5
DILUPBiCGStab:  Solving for Uz, Initial residual = 0.0236062, Final residual = 5.60136e-05, No Iterations 5
[INFO] MomentumPredictor: 157.2 [ms]
[INFO] MatrixAssemblyPI: 20.339 [ms]
[INFO] AdjustPhi: 0.911 [ms]
[INFO] ConstrainPressure: 0.002 [ms]
[INFO] MatrixAssemblyPII: 6.414 [ms]
[OGL LOG][Proc: 0]: global_index_init: 0.013 [ms]
[OGL LOG][Proc: 0]p_local_coeffs: call_update: 0 [ms]
[OGL LOG][Proc: 0]p_non_local_coeffs: call_update: 0 [ms]
[OGL LOG][Proc: 0]p: update_local_matrix_data: 5.137 [ms]
[OGL LOG][Proc: 0]p: update_non_local_matrix_data: 0.212 [ms]
[OGL LOG][Proc: 0]p: regenerate_distributed_matrix: 11.277 [ms]
[OGL LOG][Proc: 0]p_matrix: call_update: 12.197 [ms]
[OGL LOG][Proc: 0]p_rhs: call_update: 0.429 [ms]
[OGL LOG][Preconditioner.H:271] Generate preconditioner GISAI SparsityPower 1
[OGL LOG][Proc: 0]p: init_precond: 18.499 [ms]
[OGL LOG][StoppingCriterion.H:239] Creating stopping criterion with minIter 144 frequency 6
[OGL LOG][Proc: 0]p: generate_solver: 0.015 [ms]
[OGL LOG][Proc: 0]p: solve: 412.908 [ms]
[OGL LOG][Proc: 0]p: copy_x_back: 0.363 [ms]
[OGL LOG][lduLduBase.H:330] 
Statistics:
	Time per iteration: 2359 [mu s]
	Time per residual norm calculation: 1256.000000 [mu s]
	Time per iteration and DOF: 2.359000 [ns]
	Retrieve results bandwidth 2.754000 [GByte/s]
[OGL LOG][Proc: 0]p: solve_multi_gpu: 445.794 [ms]
GISAIcudaGKOCG:  Solving for p, Initial residual = 0.0141101, Final residual = 9.33365e-05, No Iterations 175
[INFO] SolveP: 452.916 [ms]
time step continuity errors : sum local = 1.60262e-08, global = 6.93074e-21, cumulative = 1.64914e-20
[INFO] ContinuityError: 4.077 [ms]
[INFO] CorrectBoundary: 0.418 [ms]
[INFO] PISOStep: 493.088 [ms]
[INFO] MatrixAssemblyPI: 19.839 [ms]
[INFO] AdjustPhi: 1.786 [ms]
[INFO] ConstrainPressure: 0.002 [ms]
[INFO] MatrixAssemblyPII: 6.362 [ms]
[OGL LOG][Proc: 0]: global_index_init: 0.013 [ms]
[OGL LOG][Proc: 0]p_local_coeffs: call_update: 0 [ms]
[OGL LOG][Proc: 0]p_non_local_coeffs: call_update: 0 [ms]
[OGL LOG][Proc: 0]p: update_local_matrix_data: 5.111 [ms]
[OGL LOG][Proc: 0]p: update_non_local_matrix_data: 0.22 [ms]
[OGL LOG][Proc: 0]p: regenerate_distributed_matrix: 13.517 [ms]
[OGL LOG][Proc: 0]p_matrix: call_update: 14.261 [ms]
[OGL LOG][Proc: 0]p_rhs: call_update: 0.602 [ms]
[OGL LOG][Preconditioner.H:271] Generate preconditioner GISAI SparsityPower 1
[OGL LOG][Proc: 0]p: init_precond: 17.911 [ms]
[OGL LOG][StoppingCriterion.H:239] Creating stopping criterion with minIter 105 frequency 8
[OGL LOG][Proc: 0]p: generate_solver: 0.014 [ms]
[OGL LOG][Proc: 0]p: solve: 401.569 [ms]
[OGL LOG][Proc: 0]p: copy_x_back: 0.354 [ms]
[OGL LOG][lduLduBase.H:330] 
Statistics:
	Time per iteration: 2376 [mu s]
	Time per residual norm calculation: 1254.000000 [mu s]
	Time per iteration and DOF: 2.376000 [ns]
	Retrieve results bandwidth 2.824000 [GByte/s]
[OGL LOG][Proc: 0]p: solve_multi_gpu: 436.349 [ms]
GISAIcudaGKOCG:  Solving for p, Initial residual = 0.0128413, Final residual = 7.95379e-05, No Iterations 169
[INFO] SolveP: 443.416 [ms]
time step continuity errors : sum local = 1.27834e-08, global = 5.36137e-21, cumulative = 2.18527e-20
[INFO] ContinuityError: 2.443 [ms]
[INFO] CorrectBoundary: 0.086 [ms]
[INFO] PISOStep: 482.256 [ms]
[INFO] TimeStep: 1154.01 [ms]
ExecutionTime = 66.42 s  ClockTime = 68 s

Time = 0.008

Courant Number mean: 0.0691918 max: 0.476948
[INFO] MatrixAssemblyU: 18.789 [ms]
DILUPBiCGStab:  Solving for Ux, Initial residual = 0.00498872, Final residual = 1.3852e-05, No Iterations 5
DILUPBiCGStab:  Solving for Uy, Initial residual = 0.0107325, Final residual = 2.29972e-05, No Iterations 5
DILUPBiCGStab:  Solving for Uz, Initial residual = 0.0217642, Final residual = 5.7126e-05, No Iterations 5
[INFO] MomentumPredictor: 156.372 [ms]
[INFO] MatrixAssemblyPI: 20.517 [ms]
[INFO] AdjustPhi: 0.95 [ms]
[INFO] ConstrainPressure: 0.002 [ms]
[INFO] MatrixAssemblyPII: 6.357 [ms]
[OGL LOG][Proc: 0]: global_index_init: 0.016 [ms]
[OGL LOG][Proc: 0]p_local_coeffs: call_update: 0 [ms]
[OGL LOG][Proc: 0]p_non_local_coeffs: call_update: 0 [ms]
[OGL LOG][Proc: 0]p: update_local_matrix_data: 5.207 [ms]
[OGL LOG][Proc: 0]p: update_non_local_matrix_data: 0.22 [ms]
[OGL LOG][Proc: 0]p: regenerate_distributed_matrix: 11.291 [ms]
[OGL LOG][Proc: 0]p_matrix: call_update: 12.126 [ms]
[OGL LOG][Proc: 0]p_rhs: call_update: 0.32 [ms]
[OGL LOG][Preconditioner.H:271] Generate preconditioner GISAI SparsityPower 1
[OGL LOG][Proc: 0]p: init_precond: 17.981 [ms]
[OGL LOG][StoppingCriterion.H:239] Creating stopping criterion with minIter 101 frequency 8
[OGL LOG][Proc: 0]p: generate_solver: 0.014 [ms]
[OGL LOG][Proc: 0]p: solve: 403.121 [ms]
[OGL LOG][Proc: 0]p: copy_x_back: 0.36 [ms]
[OGL LOG][lduLduBase.H:330] 
Statistics:
	Time per iteration: 2385 [mu s]
	Time per residual norm calculation: 1246.000000 [mu s]
	Time per iteration and DOF: 2.385000 [ns]
	Retrieve results bandwidth 2.777000 [GByte/s]
[OGL LOG][Proc: 0]p: solve_multi_gpu: 435.633 [ms]
GISAIcudaGKOCG:  Solving for p, Initial residual = 0.0121533, Final residual = 7.72322e-05, No Iterations 169
[INFO] SolveP: 443.11 [ms]
time step continuity errors : sum local = 1.16179e-08, global = 3.10917e-21, cumulative = 2.49619e-20
[INFO] ContinuityError: 3.904 [ms]
[INFO] CorrectBoundary: 0.551 [ms]
[INFO] PISOStep: 483.321 [ms]
[INFO] MatrixAssemblyPI: 20.39 [ms]
[INFO] AdjustPhi: 1.391 [ms]
[INFO] ConstrainPressure: 0.002 [ms]
[INFO] MatrixAssemblyPII: 6.243 [ms]
[OGL LOG][Proc: 0]: global_index_init: 0.022 [ms]
[OGL LOG][Proc: 0]p_local_coeffs: call_update: 0 [ms]
[OGL LOG][Proc: 0]p_non_local_coeffs: call_update: 0 [ms]
[OGL LOG][Proc: 0]p: update_local_matrix_data: 5.1 [ms]
[OGL LOG][Proc: 0]p: update_non_local_matrix_data: 0.211 [ms]
[OGL LOG][Proc: 0]p: regenerate_distributed_matrix: 13.225 [ms]
[OGL LOG][Proc: 0]p_matrix: call_update: 14.185 [ms]
[OGL LOG][Proc: 0]p_rhs: call_update: 0.411 [ms]
[OGL LOG][Preconditioner.H:271] Generate preconditioner GISAI SparsityPower 1
[OGL LOG][Proc: 0]p: init_precond: 18.469 [ms]
[OGL LOG][StoppingCriterion.H:239] Creating stopping criterion with minIter 101 frequency 8
[OGL LOG][Proc: 0]p: generate_solver: 0.014 [ms]
[OGL LOG][Proc: 0]p: solve: 383.237 [ms]
[OGL LOG][Proc: 0]p: copy_x_back: 0.354 [ms]
[OGL LOG][lduLduBase.H:330] 
Statistics:
	Time per iteration: 2380 [mu s]
	Time per residual norm calculation: 1259.000000 [mu s]
	Time per iteration and DOF: 2.380000 [ns]
	Retrieve results bandwidth 2.824000 [GByte/s]
[OGL LOG][Proc: 0]p: solve_multi_gpu: 418.132 [ms]
GISAIcudaGKOCG:  Solving for p, Initial residual = 0.0112776, Final residual = 9.48869e-05, No Iterations 161
[INFO] SolveP: 425.172 [ms]
time step continuity errors : sum local = 1.38219e-08, global = -1.92992e-22, cumulative = 2.47689e-20
[INFO] ContinuityError: 2.423 [ms]
[INFO] CorrectBoundary: 0.085 [ms]
[INFO] PISOStep: 464.046 [ms]
[INFO] TimeStep: 1125.26 [ms]
ExecutionTime = 67.54 s  ClockTime = 69 s

Time = 0.0085

Courant Number mean: 0.0704368 max: 0.477455
[INFO] MatrixAssemblyU: 18.726 [ms]
DILUPBiCGStab:  Solving for Ux, Initial residual = 0.0046061, Final residual = 1.25342e-05, No Iterations 5
DILUPBiCGStab:  Solving for Uy, Initial residual = 0.00989249, Final residual = 2.13429e-05, No Iterations 5
DILUPBiCGStab:  Solving for Uz, Initial residual = 0.0206115, Final residual = 5.71868e-05, No Iterations 5
[INFO] MomentumPredictor: 156.884 [ms]
[INFO] MatrixAssemblyPI: 20.397 [ms]
[INFO] AdjustPhi: 0.911 [ms]
[INFO] ConstrainPressure: 0.002 [ms]
[INFO] MatrixAssemblyPII: 6.312 [ms]
[OGL LOG][Proc: 0]: global_index_init: 0.019 [ms]
[OGL LOG][Proc: 0]p_local_coeffs: call_update: 0 [ms]
[OGL LOG][Proc: 0]p_non_local_coeffs: call_update: 0 [ms]
[OGL LOG][Proc: 0]p: update_local_matrix_data: 5.123 [ms]
[OGL LOG][Proc: 0]p: update_non_local_matrix_data: 0.234 [ms]
[OGL LOG][Proc: 0]p: regenerate_distributed_matrix: 11.264 [ms]
[OGL LOG][Proc: 0]p_matrix: call_update: 12.163 [ms]
[OGL LOG][Proc: 0]p_rhs: call_update: 0.337 [ms]
[OGL LOG][Preconditioner.H:271] Generate preconditioner GISAI SparsityPower 1
[OGL LOG][Proc: 0]p: init_precond: 18.045 [ms]
[OGL LOG][StoppingCriterion.H:239] Creating stopping criterion with minIter 96 frequency 8
[OGL LOG][Proc: 0]p: generate_solver: 0.015 [ms]
[OGL LOG][Proc: 0]p: solve: 923.118 [ms]
[OGL LOG][Proc: 0]p: copy_x_back: 0.36 [ms]
[OGL LOG][lduLduBase.H:330] 
Statistics:
	Time per iteration: 2397 [mu s]
	Time per residual norm calculation: 1254.000000 [mu s]
	Time per iteration and DOF: 2.397000 [ns]
	Retrieve results bandwidth 2.777000 [GByte/s]
[OGL LOG][Proc: 0]p: solve_multi_gpu: 955.736 [ms]
GISAIcudaGKOCG:  Solving for p, Initial residual = 0.0108889, Final residual = 7.09929e-05, No Iterations 385
[INFO] SolveP: 962.631 [ms]
time step continuity errors : sum local = 9.92243e-09, global = 5.09579e-21, cumulative = 2.98647e-20
[INFO] ContinuityError: 2.41 [ms]
[INFO] CorrectBoundary: 0.101 [ms]
[INFO] PISOStep: 1000.86 [ms]
[INFO] MatrixAssemblyPI: 19.551 [ms]
[INFO] AdjustPhi: 0.912 [ms]
[INFO] ConstrainPressure: 0.003 [ms]
[INFO] MatrixAssemblyPII: 6.319 [ms]
[OGL LOG][Proc: 0]: global_index_init: 0.016 [ms]
[OGL LOG][Proc: 0]p_local_coeffs: call_update: 0 [ms]
[OGL LOG][Proc: 0]p_non_local_coeffs: call_update: 0 [ms]
[OGL LOG][Proc: 0]p: update_local_matrix_data: 5.114 [ms]
[OGL LOG][Proc: 0]p: update_non_local_matrix_data: 0.252 [ms]
[OGL LOG][Proc: 0]p: regenerate_distributed_matrix: 11.271 [ms]
[OGL LOG][Proc: 0]p_matrix: call_update: 12.275 [ms]
[OGL LOG][Proc: 0]p_rhs: call_update: 0.35 [ms]
[OGL LOG][Preconditioner.H:271] Generate preconditioner GISAI SparsityPower 1
[OGL LOG][Proc: 0]p: init_precond: 18.115 [ms]
[OGL LOG][StoppingCriterion.H:239] Creating stopping criterion with minIter 231 frequency 12
[OGL LOG][Proc: 0]p: generate_solver: 0.016 [ms]
[OGL LOG][Proc: 0]p: solve: 892.662 [ms]
[OGL LOG][Proc: 0]p: copy_x_back: 0.365 [ms]
[OGL LOG][lduLduBase.H:330] 
Statistics:
	Time per iteration: 2318 [mu s]
	Time per residual norm calculation: 1108.000000 [mu s]
	Time per iteration and DOF: 2.318000 [ns]
	Retrieve results bandwidth 2.739000 [GByte/s]
[OGL LOG][Proc: 0]p: solve_multi_gpu: 924.808 [ms]
GISAIcudaGKOCG:  Solving for p, Initial residual = 0.0101754, Final residual = 5.90225e-05, No Iterations 385
[INFO] SolveP: 932.425 [ms]
time step continuity errors : sum local = 8.25226e-09, global = 1.15684e-20, cumulative = 4.14331e-20
[INFO] ContinuityError: 2.514 [ms]
[INFO] CorrectBoundary: 0.101 [ms]
[INFO] PISOStep: 969.931 [ms]
[INFO] TimeStep: 2149.2 [ms]
ExecutionTime = 69.69 s  ClockTime = 71 s

Time = 0.009

Courant Number mean: 0.0715997 max: 0.477913
[INFO] MatrixAssemblyU: 18.871 [ms]
DILUPBiCGStab:  Solving for Ux, Initial residual = 0.0042587, Final residual = 1.14629e-05, No Iterations 5
DILUPBiCGStab:  Solving for Uy, Initial residual = 0.00916753, Final residual = 1.96319e-05, No Iterations 5
DILUPBiCGStab:  Solving for Uz, Initial residual = 0.0188483, Final residual = 4.3282e-05, No Iterations 5
[INFO] MomentumPredictor: 161.592 [ms]
[INFO] MatrixAssemblyPI: 21.217 [ms]
[INFO] AdjustPhi: 0.921 [ms]
[INFO] ConstrainPressure: 0.002 [ms]
[INFO] MatrixAssemblyPII: 7.027 [ms]
[OGL LOG][Proc: 0]: global_index_init: 0.018 [ms]
[OGL LOG][Proc: 0]p_local_coeffs: call_update: 0 [ms]
[OGL LOG][Proc: 0]p_non_local_coeffs: call_update: 0 [ms]
[OGL LOG][Proc: 0]p: update_local_matrix_data: 5.237 [ms]
[OGL LOG][Proc: 0]p: update_non_local_matrix_data: 0.255 [ms]
[OGL LOG][Proc: 0]p: regenerate_distributed_matrix: 11.815 [ms]
[OGL LOG][Proc: 0]p_matrix: call_update: 12.741 [ms]
[OGL LOG][Proc: 0]p_rhs: call_update: 0.437 [ms]
[OGL LOG][Preconditioner.H:271] Generate preconditioner GISAI SparsityPower 1
[OGL LOG][Proc: 0]p: init_precond: 18.049 [ms]
[OGL LOG][StoppingCriterion.H:239] Creating stopping criterion with minIter 231 frequency 8
[OGL LOG][Proc: 0]p: generate_solver: 0.014 [ms]
[OGL LOG][Proc: 0]p: solve: 901.7 [ms]
[OGL LOG][Proc: 0]p: copy_x_back: 0.359 [ms]
[OGL LOG][lduLduBase.H:330] 
Statistics:
	Time per iteration: 2342 [mu s]
	Time per residual norm calculation: 1250.000000 [mu s]
	Time per iteration and DOF: 2.342000 [ns]
	Retrieve results bandwidth 2.785000 [GByte/s]
[OGL LOG][Proc: 0]p: solve_multi_gpu: 934.62 [ms]
GISAIcudaGKOCG:  Solving for p, Initial residual = 0.00987606, Final residual = 6.0563e-05, No Iterations 385
[INFO] SolveP: 941.984 [ms]
time step continuity errors : sum local = 8.47028e-09, global = -4.44962e-21, cumulative = 3.69835e-20
[INFO] ContinuityError: 2.353 [ms]
[INFO] CorrectBoundary: 0.095 [ms]
[INFO] PISOStep: 981.822 [ms]
[INFO] MatrixAssemblyPI: 19.584 [ms]
[INFO] AdjustPhi: 0.915 [ms]
[INFO] ConstrainPressure: 0.002 [ms]
[INFO] MatrixAssemblyPII: 6.342 [ms]
[OGL LOG][Proc: 0]: global_index_init: 0.017 [ms]
[OGL LOG][Proc: 0]p_local_coeffs: call_update: 0 [ms]
[OGL LOG][Proc: 0]p_non_local_coeffs: call_update: 0 [ms]
[OGL LOG][Proc: 0]p: update_local_matrix_data: 5.106 [ms]
[OGL LOG][Proc: 0]p: update_non_local_matrix_data: 0.215 [ms]
[OGL LOG][Proc: 0]p: regenerate_distributed_matrix: 11.266 [ms]
[OGL LOG][Proc: 0]p_matrix: call_update: 12.195 [ms]
[OGL LOG][Proc: 0]p_rhs: call_update: 0.348 [ms]
[OGL LOG][Preconditioner.H:271] Generate preconditioner GISAI SparsityPower 1
[OGL LOG][Proc: 0]p: init_precond: 17.872 [ms]
[OGL LOG][StoppingCriterion.H:239] Creating stopping criterion with minIter 231 frequency 12
[OGL LOG][Proc: 0]p: generate_solver: 0.014 [ms]
[OGL LOG][Proc: 0]p: solve: 894.621 [ms]
[OGL LOG][Proc: 0]p: copy_x_back: 0.43 [ms]
[OGL LOG][lduLduBase.H:330] 
Statistics:
	Time per iteration: 2323 [mu s]
	Time per residual norm calculation: 1111.000000 [mu s]
	Time per iteration and DOF: 2.323000 [ns]
	Retrieve results bandwidth 2.325000 [GByte/s]
[OGL LOG][Proc: 0]p: solve_multi_gpu: 926.464 [ms]
GISAIcudaGKOCG:  Solving for p, Initial residual = 0.00928748, Final residual = 5.94463e-05, No Iterations 385
[INFO] SolveP: 934.594 [ms]
time step continuity errors : sum local = 8.3168e-09, global = 1.4553e-21, cumulative = 3.84388e-20
[INFO] ContinuityError: 3.692 [ms]
[INFO] CorrectBoundary: 0.115 [ms]
[INFO] PISOStep: 974.165 [ms]
[INFO] TimeStep: 2139.22 [ms]
ExecutionTime = 71.82 s  ClockTime = 73 s

Time = 0.0095

Courant Number mean: 0.0726862 max: 0.478326
[INFO] MatrixAssemblyU: 18.407 [ms]
DILUPBiCGStab:  Solving for Ux, Initial residual = 0.00394952, Final residual = 1.04341e-05, No Iterations 5
DILUPBiCGStab:  Solving for Uy, Initial residual = 0.00852204, Final residual = 1.80553e-05, No Iterations 5
DILUPBiCGStab:  Solving for Uz, Initial residual = 0.0174311, Final residual = 3.69576e-05, No Iterations 5
[INFO] MomentumPredictor: 157.903 [ms]
[INFO] MatrixAssemblyPI: 20.48 [ms]
[INFO] AdjustPhi: 1.081 [ms]
[INFO] ConstrainPressure: 0.002 [ms]
[INFO] MatrixAssemblyPII: 6.327 [ms]
[OGL LOG][Proc: 0]: global_index_init: 0.019 [ms]
[OGL LOG][Proc: 0]p_local_coeffs: call_update: 0 [ms]
[OGL LOG][Proc: 0]p_non_local_coeffs: call_update: 0 [ms]
[OGL LOG][Proc: 0]p: update_local_matrix_data: 5.062 [ms]
[OGL LOG][Proc: 0]p: update_non_local_matrix_data: 0.245 [ms]
[OGL LOG][Proc: 0]p: regenerate_distributed_matrix: 12.635 [ms]
[OGL LOG][Proc: 0]p_matrix: call_update: 13.507 [ms]
[OGL LOG][Proc: 0]p_rhs: call_update: 0.335 [ms]
[OGL LOG][Preconditioner.H:271] Generate preconditioner GISAI SparsityPower 1
[OGL LOG][Proc: 0]p: init_precond: 18.086 [ms]
[OGL LOG][StoppingCriterion.H:239] Creating stopping criterion with minIter 231 frequency 8
[OGL LOG][Proc: 0]p: generate_solver: 0.015 [ms]
[OGL LOG][Proc: 0]p: solve: 883.188 [ms]
[OGL LOG][Proc: 0]p: copy_x_back: 0.362 [ms]
[OGL LOG][lduLduBase.H:330] 
Statistics:
	Time per iteration: 2342 [mu s]
	Time per residual norm calculation: 1256.000000 [mu s]
	Time per iteration and DOF: 2.342000 [ns]
	Retrieve results bandwidth 2.762000 [GByte/s]
[OGL LOG][Proc: 0]p: solve_multi_gpu: 917.376 [ms]
GISAIcudaGKOCG:  Solving for p, Initial residual = 0.00879841, Final residual = 8.66462e-05, No Iterations 377
[INFO] SolveP: 924.307 [ms]
time step continuity errors : sum local = 1.21148e-08, global = -8.27667e-21, cumulative = 3.01621e-20
[INFO] ContinuityError: 3.033 [ms]
[INFO] CorrectBoundary: 0.522 [ms]
[INFO] PISOStep: 963.601 [ms]
[INFO] MatrixAssemblyPI: 19.972 [ms]
[INFO] AdjustPhi: 2.018 [ms]
[INFO] ConstrainPressure: 0.002 [ms]
[INFO] MatrixAssemblyPII: 6.257 [ms]
[OGL LOG][Proc: 0]: global_index_init: 0.017 [ms]
[OGL LOG][Proc: 0]p_local_coeffs: call_update: 0 [ms]
[OGL LOG][Proc: 0]p_non_local_coeffs: call_update: 0 [ms]
[OGL LOG][Proc: 0]p: update_local_matrix_data: 5.13 [ms]
[OGL LOG][Proc: 0]p: update_non_local_matrix_data: 0.212 [ms]
[OGL LOG][Proc: 0]p: regenerate_distributed_matrix: 13.417 [ms]
[OGL LOG][Proc: 0]p_matrix: call_update: 14.249 [ms]
[OGL LOG][Proc: 0]p_rhs: call_update: 0.437 [ms]
[OGL LOG][Preconditioner.H:271] Generate preconditioner GISAI SparsityPower 1
[OGL LOG][Proc: 0]p: init_precond: 18.254 [ms]
[OGL LOG][StoppingCriterion.H:239] Creating stopping criterion with minIter 226 frequency 12
[OGL LOG][Proc: 0]p: generate_solver: 0.015 [ms]
[OGL LOG][Proc: 0]p: solve: 895.843 [ms]
[OGL LOG][Proc: 0]p: copy_x_back: 0.367 [ms]
[OGL LOG][lduLduBase.H:330] 
Statistics:
	Time per iteration: 2326 [mu s]
	Time per residual norm calculation: 1256.000000 [mu s]
	Time per iteration and DOF: 2.326000 [ns]
	Retrieve results bandwidth 2.724000 [GByte/s]
[OGL LOG][Proc: 0]p: solve_multi_gpu: 930.883 [ms]
GISAIcudaGKOCG:  Solving for p, Initial residual = 0.00830916, Final residual = 4.25347e-05, No Iterations 385
[INFO] SolveP: 937.779 [ms]
time step continuity errors : sum local = 5.94799e-09, global = -4.95549e-22, cumulative = 2.96665e-20
[INFO] ContinuityError: 3.091 [ms]
[INFO] CorrectBoundary: 0.09 [ms]
[INFO] PISOStep: 977.693 [ms]
[INFO] TimeStep: 2120.8 [ms]
ExecutionTime = 73.94 s  ClockTime = 76 s

Time = 0.01

Courant Number mean: 0.0737032 max: 0.478701
[INFO] MatrixAssemblyU: 18.779 [ms]
DILUPBiCGStab:  Solving for Ux, Initial residual = 0.0036786, Final residual = 9.59472e-06, No Iterations 5
DILUPBiCGStab:  Solving for Uy, Initial residual = 0.00794343, Final residual = 1.67106e-05, No Iterations 5
DILUPBiCGStab:  Solving for Uz, Initial residual = 0.0162019, Final residual = 3.47705e-05, No Iterations 5
[INFO] MomentumPredictor: 156.414 [ms]
[INFO] MatrixAssemblyPI: 20.149 [ms]
[INFO] AdjustPhi: 0.979 [ms]
[INFO] ConstrainPressure: 0.002 [ms]
[INFO] MatrixAssemblyPII: 6.266 [ms]
[OGL LOG][Proc: 0]: global_index_init: 0.017 [ms]
[OGL LOG][Proc: 0]p_local_coeffs: call_update: 0 [ms]
[OGL LOG][Proc: 0]p_non_local_coeffs: call_update: 0 [ms]
[OGL LOG][Proc: 0]p: update_local_matrix_data: 5.254 [ms]
[OGL LOG][Proc: 0]p: update_non_local_matrix_data: 0.218 [ms]
[OGL LOG][Proc: 0]p: regenerate_distributed_matrix: 11.881 [ms]
[OGL LOG][Proc: 0]p_matrix: call_update: 12.624 [ms]
[OGL LOG][Proc: 0]p_rhs: call_update: 0.597 [ms]
[OGL LOG][Preconditioner.H:271] Generate preconditioner GISAI SparsityPower 1
[OGL LOG][Proc: 0]p: init_precond: 18.242 [ms]
[OGL LOG][StoppingCriterion.H:239] Creating stopping criterion with minIter 231 frequency 12
[OGL LOG][Proc: 0]p: generate_solver: 0.014 [ms]
[OGL LOG][Proc: 0]p: solve: 555.077 [ms]
[OGL LOG][Proc: 0]p: copy_x_back: 0.361 [ms]
[OGL LOG][lduLduBase.H:330] 
Statistics:
	Time per iteration: 2303 [mu s]
	Time per residual norm calculation: 1257.000000 [mu s]
	Time per iteration and DOF: 2.303000 [ns]
	Retrieve results bandwidth 2.770000 [GByte/s]
[OGL LOG][Proc: 0]p: solve_multi_gpu: 588.591 [ms]
GISAIcudaGKOCG:  Solving for p, Initial residual = 0.00801411, Final residual = 3.79625e-06, No Iterations 241
[INFO] SolveP: 595.422 [ms]
time step continuity errors : sum local = 5.66874e-10, global = 2.01419e-21, cumulative = 3.16807e-20
[INFO] ContinuityError: 2.378 [ms]
[INFO] CorrectBoundary: 0.15 [ms]
[INFO] PISOStep: 633.393 [ms]
[INFO] MatrixAssemblyPI: 19.692 [ms]
[INFO] AdjustPhi: 0.912 [ms]
[INFO] ConstrainPressure: 0.002 [ms]
[INFO] MatrixAssemblyPII: 6.317 [ms]
[OGL LOG][Proc: 0]: global_index_init: 0.017 [ms]
[OGL LOG][Proc: 0]p_local_coeffs: call_update: 0 [ms]
[OGL LOG][Proc: 0]p_non_local_coeffs: call_update: 0 [ms]
[OGL LOG][Proc: 0]p: update_local_matrix_data: 5.18 [ms]
[OGL LOG][Proc: 0]p: update_non_local_matrix_data: 0.266 [ms]
[OGL LOG][Proc: 0]p: regenerate_distributed_matrix: 11.241 [ms]
[OGL LOG][Proc: 0]p_matrix: call_update: 12.157 [ms]
[OGL LOG][Proc: 0]p_rhs: call_update: 0.485 [ms]
[OGL LOG][Preconditioner.H:271] Generate preconditioner GISAI SparsityPower 1
[OGL LOG][Proc: 0]p: init_precond: 18.237 [ms]
[OGL LOG][StoppingCriterion.H:239] Creating stopping criterion with minIter 144 frequency 9
[OGL LOG][Proc: 0]p: generate_solver: 0.013 [ms]
[OGL LOG][Proc: 0]p: solve: 381.561 [ms]
[OGL LOG][Proc: 0]p: copy_x_back: 0.358 [ms]
[OGL LOG][lduLduBase.H:330] 
Statistics:
	Time per iteration: 2340 [mu s]
	Time per residual norm calculation: 1254.000000 [mu s]
	Time per iteration and DOF: 2.340000 [ns]
	Retrieve results bandwidth 2.793000 [GByte/s]
[OGL LOG][Proc: 0]p: solve_multi_gpu: 414.339 [ms]
GISAIcudaGKOCG:  Solving for p, Initial residual = 0.00759115, Final residual = 6.08954e-05, No Iterations 163
[INFO] SolveP: 421.422 [ms]
time step continuity errors : sum local = 8.52286e-09, global = 8.1854e-22, cumulative = 3.24993e-20
[INFO] ContinuityError: 2.347 [ms]
[INFO] CorrectBoundary: 0.097 [ms]
[INFO] PISOStep: 458.905 [ms]
[INFO] TimeStep: 1270.28 [ms]
ExecutionTime = 75.2 s  ClockTime = 77 s

End

Finalising parallel run
