/*---------------------------------------------------------------------------*\
| =========                 |                                                 |
| \\      /  F ield         | OpenFOAM: The Open Source CFD Toolbox           |
|  \\    /   O peration     | Version:  2306                                  |
|   \\  /    A nd           | Website:  www.openfoam.com                      |
|    \\/     M anipulation  |                                                 |
\*---------------------------------------------------------------------------*/
Build  : a6e826bd55-20230630 OPENFOAM=2306 version=v2306
Arch   : "LSB;label=32;scalar=64"
Exec   : simpleFoam -parallel -case /home/greole/data/code/exasim_project/micro_benchmarks/WindsorBody/workspace/bad090c746c8b3f4ba3c056d18e38998/case
Date   : Aug 02 2023
Time   : 10:42:21
Host   : nla-gpu2.ianm.kit.edu
PID    : 75831
I/O    : uncollated
Case   : /home/greole/data/code/exasim_project/micro_benchmarks/WindsorBody/workspace/bad090c746c8b3f4ba3c056d18e38998/case
nProcs : 16
Hosts  :
(
    (nla-gpu2.ianm.kit.edu 16)
)
Pstream initialized with:
    floatTransfer      : false
    nProcsSimpleSum    : 0
    nonBlockingExchange: 0 (tuning: 0)
    exchange algorithm : -1
    commsType          : nonBlocking
    polling iterations : 0
trapFpe: Floating point exception trapping enabled (FOAM_SIGFPE).
fileModificationChecking : Monitoring run-time modified files using timeStampMaster (fileModificationSkew 5, maxFileModificationPolls 20)
allowSystemOperations : Allowing user-supplied system call operations

// * * * * * * * * * * * * * * * * * * * * * * * * * * * * * * * * * * * * * //
Create time

--> FOAM Warning : 
    From void* Foam::dlLibraryTable::openLibrary(const Foam::fileName&, bool)
    in file db/dynamicLibrary/dlLibraryTable/dlLibraryTable.C at line 188
    Could not load "libpetscFoam.so"
libpetscFoam.so: cannot open shared object file: No such file or directory
Create mesh for time = 0


SIMPLE: convergence criteria
    field p	 tolerance 1e-08
    field U	 tolerance 1e-08
    field k	 tolerance 1e-08
    field omega	 tolerance 1e-08
    field nuTilda	 tolerance 1e-08

Reading field p

Reading field U

Reading/calculating face flux field phi

Selecting incompressible transport model Newtonian
Selecting turbulence model type RAS
Selecting RAS turbulence model SpalartAllmaras
Selecting patchDistMethod meshWave
ft2 term: inactive
RAS
{
    RASModel        SpalartAllmaras;
    turbulence      on;
    printCoeffs     on;
    sigmaNut        0.66666;
    kappa           0.41;
    Cb1             0.1355;
    Cb2             0.622;
    Cw2             0.3;
    Cw3             2;
    Cv1             7.1;
    Cs              0.3;
    ck              0.07000000000000001;
    ft2             false;
    Ct3             1.2;
    Ct4             0.5;
}

No MRF models present

Creating finite volume options from "system/fvOptions"

Selecting finite volume options type velocityDampingConstraint
    Source: velocityDamping
    - selecting all cells
    - selected 18921408 cell(s) with volume 83.47749154808595

Starting time loop

--> FOAM Warning : 
    From bool Foam::functionObjectList::read()
    in file db/functionObjects/functionObjectList/functionObjectList.C at line 1035
    Reading "system/controlDict" at line 2 to 41
    Entry 'lref' is not a dictionary
--> FOAM Warning : 
    From bool Foam::functionObjectList::read()
    in file db/functionObjects/functionObjectList/functionObjectList.C at line 1035
    Reading "system/controlDict" at line 2 to 41
    Entry 'Aref' is not a dictionary
--> FOAM Warning : 
    From bool Foam::functionObjectList::read()
    in file db/functionObjects/functionObjectList/functionObjectList.C at line 1035
    Reading "system/controlDict" at line 2 to 41
    Entry 'yawAngle' is not a dictionary
--> FOAM Warning : 
    From bool Foam::functionObjectList::read()
    in file db/functionObjects/functionObjectList/functionObjectList.C at line 1035
    Reading "system/controlDict" at line 2 to 41
    Entry 'lDomain' is not a dictionary
--> FOAM Warning : 
    From bool Foam::functionObjectList::read()
    in file db/functionObjects/functionObjectList/functionObjectList.C at line 1035
    Reading "system/controlDict" at line 2 to 41
    Entry 'bDomain' is not a dictionary
--> FOAM Warning : 
    From bool Foam::functionObjectList::read()
    in file db/functionObjects/functionObjectList/functionObjectList.C at line 1035
    Reading "system/controlDict" at line 2 to 41
    Entry 'hDomain' is not a dictionary
--> FOAM Warning : 
    From bool Foam::functionObjectList::read()
    in file db/functionObjects/functionObjectList/functionObjectList.C at line 1035
    Reading "system/controlDict" at line 2 to 41
    Entry 'xCenter' is not a dictionary
--> FOAM Warning : 
    From bool Foam::functionObjectList::read()
    in file db/functionObjects/functionObjectList/functionObjectList.C at line 1035
    Reading "system/controlDict" at line 2 to 41
    Entry 'yCenter' is not a dictionary
--> FOAM Warning : 
    From bool Foam::functionObjectList::read()
    in file db/functionObjects/functionObjectList/functionObjectList.C at line 1035
    Reading "system/controlDict" at line 2 to 41
    Entry 'zCenter' is not a dictionary
--> FOAM Warning : 
    From bool Foam::functionObjectList::read()
    in file db/functionObjects/functionObjectList/functionObjectList.C at line 1035
    Reading "system/controlDict" at line 2 to 41
    Entry 'inletPatch' is not a dictionary
--> FOAM Warning : 
    From bool Foam::functionObjectList::read()
    in file db/functionObjects/functionObjectList/functionObjectList.C at line 1035
    Reading "system/controlDict" at line 2 to 41
    Entry 'outletPatch' is not a dictionary
--> FOAM Warning : 
    From bool Foam::functionObjectList::read()
    in file db/functionObjects/functionObjectList/functionObjectList.C at line 1035
    Reading "system/controlDict" at line 2 to 41
    Entry 'wallPatches' is not a dictionary
--> FOAM Warning : 
    From bool Foam::functionObjectList::read()
    in file db/functionObjects/functionObjectList/functionObjectList.C at line 1035
    Reading "system/controlDict" at line 2 to 41
    Entry 'forcesWallPatches' is not a dictionary
--> FOAM Warning : 
    From bool Foam::functionObjectList::read()
    in file db/functionObjects/functionObjectList/functionObjectList.C at line 1035
    Reading "system/controlDict" at line 2 to 41
    Entry 'symmPatches' is not a dictionary
--> FOAM Warning : 
    From bool Foam::functionObjectList::read()
    in file db/functionObjects/functionObjectList/functionObjectList.C at line 1035
    Reading "system/controlDict" at line 2 to 41
    Entry 'Uinf' is not a dictionary
--> FOAM Warning : 
    From bool Foam::functionObjectList::read()
    in file db/functionObjects/functionObjectList/functionObjectList.C at line 1035
    Reading "system/controlDict" at line 2 to 41
    Entry 'UinfMag' is not a dictionary
--> FOAM Warning : 
    From bool Foam::functionObjectList::read()
    in file db/functionObjects/functionObjectList/functionObjectList.C at line 1035
    Reading "system/controlDict" at line 2 to 41
    Entry 'nu' is not a dictionary
--> FOAM Warning : 
    From bool Foam::functionObjectList::read()
    in file db/functionObjects/functionObjectList/functionObjectList.C at line 1035
    Reading "system/controlDict" at line 2 to 41
    Entry 'pref' is not a dictionary
--> FOAM Warning : 
    From bool Foam::functionObjectList::read()
    in file db/functionObjects/functionObjectList/functionObjectList.C at line 1035
    Reading "system/controlDict" at line 2 to 41
    Entry 'viscRatio' is not a dictionary
--> FOAM Warning : 
    From bool Foam::functionObjectList::read()
    in file db/functionObjects/functionObjectList/functionObjectList.C at line 1035
    Reading "system/controlDict" at line 2 to 41
    Entry 'Tu' is not a dictionary
--> FOAM Warning : 
    From bool Foam::functionObjectList::read()
    in file db/functionObjects/functionObjectList/functionObjectList.C at line 1035
    Reading "system/controlDict" at line 2 to 41
    Entry 'LESturbModel' is not a dictionary
--> FOAM Warning : 
    From bool Foam::functionObjectList::read()
    in file db/functionObjects/functionObjectList/functionObjectList.C at line 1035
    Reading "system/controlDict" at line 2 to 41
    Entry 'RASturbModel' is not a dictionary
--> FOAM Warning : 
    From bool Foam::functionObjectList::read()
    in file db/functionObjects/functionObjectList/functionObjectList.C at line 1035
    Reading "system/controlDict" at line 2 to 41
    Entry 'deltaTurb' is not a dictionary
--> FOAM Warning : 
    From bool Foam::functionObjectList::read()
    in file db/functionObjects/functionObjectList/functionObjectList.C at line 1035
    Reading "system/controlDict" at line 2 to 41
    Entry 'dt' is not a dictionary
--> FOAM Warning : 
    From bool Foam::functionObjectList::read()
    in file db/functionObjects/functionObjectList/functionObjectList.C at line 1035
    Reading "system/controlDict" at line 2 to 41
    Entry 'tAvg' is not a dictionary
--> FOAM Warning : 
    From bool Foam::functionObjectList::read()
    in file db/functionObjects/functionObjectList/functionObjectList.C at line 1035
    Reading "system/controlDict" at line 2 to 41
    Entry 'tEnd' is not a dictionary
--> FOAM Warning : 
    From bool Foam::functionObjectList::read()
    in file db/functionObjects/functionObjectList/functionObjectList.C at line 1035
    Reading "system/controlDict" at line 2 to 41
    Entry 'writeInterval_' is not a dictionary
--> FOAM Warning : 
    From bool Foam::functionObjectList::read()
    in file db/functionObjects/functionObjectList/functionObjectList.C at line 1035
    Reading "system/controlDict" at line 2 to 41
    Entry 'nCores' is not a dictionary
--> FOAM Warning : 
    From bool Foam::functionObjectList::read()
    in file db/functionObjects/functionObjectList/functionObjectList.C at line 1035
    Reading "system/controlDict" at line 2 to 41
    Entry 'interpScheme' is not a dictionary
--> FOAM Warning : 
    From bool Foam::functionObjectList::read()
    in file db/functionObjects/functionObjectList/functionObjectList.C at line 1035
    Reading "system/controlDict" at line 2 to 41
    Entry 'probeField' is not a dictionary
wallShearStress wallShearStress:
    processing wall patches: 
        Windsor_Body
        CFDWT_Floor
        Windsor_Pins
        Windsor_Base
        Windsor_Body_2
        CFDWT_Floor_2
        Windsor_Pins_2
        Windsor_Base_2
        Windsor_Body_3
        CFDWT_Floor_3
        Windsor_Pins_3
        Windsor_Base_3

pressure calc_cp:
    Operating mode: staticCoeff
    Not including hydrostatic effects

forceCoeffs forceCoeffsAll:
    rho: rhoInf
    Freestream density (rhoInf) set to 1
    Not including porosity effects
    magUInf: 40
    lRef   : 0.6375
    Aref   : 0.1124
    rhoInf : 1
    Selecting all coefficients
    - Drag force: Cd
    - Drag force front: Cd(f)
    - Drag force rear: Cd(r)
    - Lift force: Cl
    - Lift force front: Cl(f)
    - Lift force rear: Cl(r)
    - Pitch moment: CmPitch
    - Roll moment: CmRoll
    - Yaw moment: CmYaw
    - Side force: Cs
    - Side force front: Cs(f)
    - Side force rear: Cs(r)


forceCoeffs dragCoeffBase:
    rho: rhoInf
    Freestream density (rhoInf) set to 1
    Not including porosity effects
    magUInf: 40
    lRef   : 0.6375
    Aref   : 0.1124
    rhoInf : 1
    Selecting coefficients:
    - Drag force: Cd


Time = 1

velocityDampingConstraint velocityDamping damped 0 (0%) of cells, with max limit 300
[INFO] MatrixAssemblyU: 1687.157 [ms]
[OGL LOG][lduLduBase.H:119] Initialising OGL
	OGL commit:  a97448d+
	Branch: PersistentDeviceIdGuard 
	Build type: Release
	Ginkgo version: 1.5.0 ( develop)
	Ginkgo commit: 4292ffdee
	MPI is GPU aware: 1
	Forces host buffer based communication: 0
	CPU ranks per GPU: 1
	Matrix format: Coo
	End OGL_INFO
[OGL LOG][Proc: 0]: global_index_init: 16.708 [ms]
[OGL LOG][Proc: 0]Ux_local_cols: call_init: 0.039 [ms]
[OGL LOG][Proc: 0]Ux_local_rows: call_init: 0.003 [ms]
[OGL LOG][Proc: 0]Ux_local_ldu_map: call_init: 0.003 [ms]
[OGL LOG][Proc: 0]Ux_local_coeffs: call_init: 0.012 [ms]
[OGL LOG][Proc: 0]Ux_non_local_cols: call_init: 0.004 [ms]
[OGL LOG][Proc: 0]Ux_non_local_rows: call_init: 0.004 [ms]
[OGL LOG][Proc: 0]Ux_non_local_ldu_map: call_init: 0.003 [ms]
[OGL LOG][Proc: 0]Ux_non_local_coeffs: call_init: 0.004 [ms]
[OGL LOG][Proc: 0]Ux: init_local_sparsity_pattern: 259.894 [ms]
[OGL LOG][Proc: 0]Ux: init_non_local_sparsity_pattern: 1.414 [ms]
[OGL LOG][Proc: 0]Ux: update_local_matrix_data: 33.806 [ms]
[OGL LOG][Proc: 0]Ux: update_non_local_matrix_data: 0.154 [ms]
[OGL LOG][Proc: 0]device_partition: call_init: 50.165 [ms]
[OGL LOG][Proc: 0]Ux_matrix: call_init: 143.978 [ms]
[OGL LOG][Proc: 0]Ux_rhs: call_init: 7.797000000000001 [ms]
[OGL LOG][Proc: 0]Ux_solution: call_init: 1.854 [ms]
[OGL LOG][Preconditioner.H:121] Generate preconditioner BJ MaxBlockSize 1
[OGL LOG][Proc: 0]Ux: init_precond: 5.004 [ms]
[OGL LOG][StoppingCriterion.H:373] Creating stopping criterion with minIter 0 frequency 1
[OGL LOG][Proc: 0]Ux: generate_solver: 0.015 [ms]
[OGL LOG][Proc: 0]Ux: solve: 1583.828 [ms]
[OGL LOG][Proc: 0]Ux: copy_x_back: 4.082 [ms]
[OGL LOG][lduLduBase.H:336] 
Statistics:
	Time per iteration: 65992 [mu s]
	Time per residual norm calculation: 1641.000000 [mu s]
	Time per iteration and DOF: 3.487690 [ns]
	Retrieve results bandwidth 2.786000 [GByte/s]
[OGL LOG][Proc: 0]Ux: solve_multi_gpu: 1798.11 [ms]
BJhipGKOBiCGStab:  Solving for Ux, Initial residual = 0.9999999999999155, Final residual = 0.05875095416469184, No Iterations 24
[OGL LOG][lduLduBase.H:119] Initialising OGL
	OGL commit:  a97448d+
	Branch: PersistentDeviceIdGuard 
	Build type: Release
	Ginkgo version: 1.5.0 ( develop)
	Ginkgo commit: 4292ffdee
	MPI is GPU aware: 1
	Forces host buffer based communication: 0
	CPU ranks per GPU: 1
	Matrix format: Coo
	End OGL_INFO
[OGL LOG][Proc: 0]: global_index_init: 0.026 [ms]
[OGL LOG][Proc: 0]Uy_local_cols: call_init: 0.009000000000000001 [ms]
[OGL LOG][Proc: 0]Uy_local_rows: call_init: 0.003 [ms]
[OGL LOG][Proc: 0]Uy_local_ldu_map: call_init: 0.004 [ms]
[OGL LOG][Proc: 0]Uy_local_coeffs: call_init: 0.005 [ms]
[OGL LOG][Proc: 0]Uy_non_local_cols: call_init: 0.004 [ms]
[OGL LOG][Proc: 0]Uy_non_local_rows: call_init: 0.003 [ms]
[OGL LOG][Proc: 0]Uy_non_local_ldu_map: call_init: 0.004 [ms]
[OGL LOG][Proc: 0]Uy_non_local_coeffs: call_init: 0.004 [ms]
[OGL LOG][Proc: 0]Uy: init_local_sparsity_pattern: 255.522 [ms]
[OGL LOG][Proc: 0]Uy: init_non_local_sparsity_pattern: 34.56 [ms]
[OGL LOG][Proc: 0]Uy: update_local_matrix_data: 34.205 [ms]
[OGL LOG][Proc: 0]Uy: update_non_local_matrix_data: 0.129 [ms]
[OGL LOG][Proc: 0]Uy_matrix: call_init: 123.821 [ms]
[OGL LOG][Proc: 0]Uy_rhs: call_init: 18.1 [ms]
[OGL LOG][Proc: 0]Uy_solution: call_init: 2.051 [ms]
[OGL LOG][Preconditioner.H:121] Generate preconditioner BJ MaxBlockSize 1
[OGL LOG][Proc: 0]Uy: init_precond: 0.85 [ms]
[OGL LOG][StoppingCriterion.H:373] Creating stopping criterion with minIter 0 frequency 1
[OGL LOG][Proc: 0]Uy: generate_solver: 0.002 [ms]
[OGL LOG][Proc: 0]Uy: solve: 250.409 [ms]
[OGL LOG][Proc: 0]Uy: copy_x_back: 4.185 [ms]
[OGL LOG][lduLduBase.H:336] 
Statistics:
	Time per iteration: 4815 [mu s]
	Time per residual norm calculation: 327.000000 [mu s]
	Time per iteration and DOF: 0.254474 [ns]
	Retrieve results bandwidth 2.717000 [GByte/s]
[OGL LOG][Proc: 0]Uy: solve_multi_gpu: 400.92 [ms]
BJhipGKOBiCGStab:  Solving for Uy, Initial residual = 1.000000000000028, Final residual = 0.060262140631013, No Iterations 52
[OGL LOG][lduLduBase.H:119] Initialising OGL
	OGL commit:  a97448d+
	Branch: PersistentDeviceIdGuard 
	Build type: Release
	Ginkgo version: 1.5.0 ( develop)
	Ginkgo commit: 4292ffdee
	MPI is GPU aware: 1
	Forces host buffer based communication: 0
	CPU ranks per GPU: 1
	Matrix format: Coo
	End OGL_INFO
[OGL LOG][Proc: 0]: global_index_init: 0.168 [ms]
[OGL LOG][Proc: 0]Uz_local_cols: call_init: 0.01 [ms]
[OGL LOG][Proc: 0]Uz_local_rows: call_init: 0.004 [ms]
[OGL LOG][Proc: 0]Uz_local_ldu_map: call_init: 0.004 [ms]
[OGL LOG][Proc: 0]Uz_local_coeffs: call_init: 0.005 [ms]
[OGL LOG][Proc: 0]Uz_non_local_cols: call_init: 0.008 [ms]
[OGL LOG][Proc: 0]Uz_non_local_rows: call_init: 0.006 [ms]
[OGL LOG][Proc: 0]Uz_non_local_ldu_map: call_init: 0.009000000000000001 [ms]
[OGL LOG][Proc: 0]Uz_non_local_coeffs: call_init: 0.007 [ms]
[OGL LOG][Proc: 0]Uz: init_local_sparsity_pattern: 261.659 [ms]
[OGL LOG][Proc: 0]Uz: init_non_local_sparsity_pattern: 42.674 [ms]
[OGL LOG][Proc: 0]Uz: update_local_matrix_data: 32.275 [ms]
[OGL LOG][Proc: 0]Uz: update_non_local_matrix_data: 0.204 [ms]
[OGL LOG][Proc: 0]Uz_matrix: call_init: 117.149 [ms]
[OGL LOG][Proc: 0]Uz_rhs: call_init: 6.497 [ms]
[OGL LOG][Proc: 0]Uz_solution: call_init: 1.854 [ms]
[OGL LOG][Preconditioner.H:121] Generate preconditioner BJ MaxBlockSize 1
[OGL LOG][Proc: 0]Uz: init_precond: 0.8150000000000001 [ms]
[OGL LOG][StoppingCriterion.H:373] Creating stopping criterion with minIter 0 frequency 1
[OGL LOG][Proc: 0]Uz: generate_solver: 0.003 [ms]
[OGL LOG][Proc: 0]Uz: solve: 82.51900000000001 [ms]
[OGL LOG][Proc: 0]Uz: copy_x_back: 4.113 [ms]
[OGL LOG][lduLduBase.H:336] 
Statistics:
	Time per iteration: 82519 [mu s]
	Time per residual norm calculation: 371.000000 [mu s]
	Time per iteration and DOF: 4.361145 [ns]
	Retrieve results bandwidth 2.765000 [GByte/s]
[OGL LOG][Proc: 0]Uz: solve_multi_gpu: 214.395 [ms]
BJhipGKOBiCGStab:  Solving for Uz, Initial residual = 1.000000000000023, Final residual = 0.09952964467305767, No Iterations 1
[INFO] MomentumPredictor: 3744.679 [ms]
[INFO] MatrixAssemblyPI: 265.266 [ms]
[INFO] MatrixAssemblyPII: 134.934 [ms]
GAMG:  Solving for p, Initial residual = 1, Final residual = 0.009053803709963747, No Iterations 25
[INFO] SolveP: 4200.968 [ms]
time step continuity errors : sum local = 0.003326937484935568, global = 8.540739295922931e-06, cumulative = 8.540739295922931e-06
[INFO] postSolveP: 69.911 [ms]
[OGL LOG][lduLduBase.H:119] Initialising OGL
	OGL commit:  a97448d+
	Branch: PersistentDeviceIdGuard 
	Build type: Release
	Ginkgo version: 1.5.0 ( develop)
	Ginkgo commit: 4292ffdee
	MPI is GPU aware: 1
	Forces host buffer based communication: 0
	CPU ranks per GPU: 1
	Matrix format: Coo
	End OGL_INFO
[OGL LOG][Proc: 0]: global_index_init: 0.9430000000000001 [ms]
[OGL LOG][Proc: 0]nuTilda_local_cols: call_init: 0.015 [ms]
[OGL LOG][Proc: 0]nuTilda_local_rows: call_init: 0.005 [ms]
[OGL LOG][Proc: 0]nuTilda_local_ldu_map: call_init: 0.005 [ms]
[OGL LOG][Proc: 0]nuTilda_local_coeffs: call_init: 0.006 [ms]
[OGL LOG][Proc: 0]nuTilda_non_local_cols: call_init: 0.005 [ms]
[OGL LOG][Proc: 0]nuTilda_non_local_rows: call_init: 0.004 [ms]
[OGL LOG][Proc: 0]nuTilda_non_local_ldu_map: call_init: 0.004 [ms]
[OGL LOG][Proc: 0]nuTilda_non_local_coeffs: call_init: 0.004 [ms]
[OGL LOG][Proc: 0]nuTilda: init_local_sparsity_pattern: 244.654 [ms]
[OGL LOG][Proc: 0]nuTilda: init_non_local_sparsity_pattern: 40.383 [ms]
[OGL LOG][Proc: 0]nuTilda: update_local_matrix_data: 35.281 [ms]
[OGL LOG][Proc: 0]nuTilda: update_non_local_matrix_data: 0.205 [ms]
[OGL LOG][Proc: 0]nuTilda_matrix: call_init: 111.125 [ms]
[OGL LOG][Proc: 0]nuTilda_rhs: call_init: 5.362 [ms]
[OGL LOG][Proc: 0]nuTilda_solution: call_init: 3.574 [ms]
[OGL LOG][Preconditioner.H:121] Generate preconditioner BJ MaxBlockSize 1
[OGL LOG][Proc: 0]nuTilda: init_precond: 0.851 [ms]
[OGL LOG][StoppingCriterion.H:373] Creating stopping criterion with minIter 0 frequency 1
[OGL LOG][Proc: 0]nuTilda: generate_solver: 0.003 [ms]
[OGL LOG][Proc: 0]nuTilda: solve: 76.098 [ms]
[OGL LOG][Proc: 0]nuTilda: copy_x_back: 4.343 [ms]
[OGL LOG][lduLduBase.H:336] 
Statistics:
	Time per iteration: 38049 [mu s]
	Time per residual norm calculation: 308.000000 [mu s]
	Time per iteration and DOF: 2.010897 [ns]
	Retrieve results bandwidth 2.618000 [GByte/s]
[OGL LOG][Proc: 0]nuTilda: solve_multi_gpu: 202.942 [ms]
BJhipGKOBiCGStab:  Solving for nuTilda, Initial residual = 0.9999999999995178, Final residual = 0.09394884565816931, No Iterations 2
[INFO] TimeStep: 11515.57 [ms]
ExecutionTime = 35.07 s  ClockTime = 36 s

--> FOAM Warning : 
    From virtual bool Foam::functionObjects::fieldSelection::checkSelection()
    in file functionObjects/fieldSelections/fieldSelection/fieldSelection.C at line 166
    Field k not found
--> FOAM Warning : 
    From virtual bool Foam::functionObjects::fieldSelection::checkSelection()
    in file functionObjects/fieldSelections/fieldSelection/fieldSelection.C at line 166
    Field gammaInt not found
--> FOAM Warning : 
    From virtual bool Foam::functionObjects::fieldSelection::checkSelection()
    in file functionObjects/fieldSelections/fieldSelection/fieldSelection.C at line 166
    Field omega not found
--> FOAM Warning : 
    From virtual bool Foam::functionObjects::fieldSelection::checkSelection()
    in file functionObjects/fieldSelections/fieldSelection/fieldSelection.C at line 166
    Field ReThetat not found
--> FOAM Warning : 
    From virtual bool Foam::functionObjects::fieldSelection::checkSelection()
    in file functionObjects/fieldSelections/fieldSelection/fieldSelection.C at line 166
    Field epsilon not found
--> FOAM Warning : 
    From virtual bool Foam::functionObjects::solverFieldSelection::updateSelection()
    in file functionObjects/fieldSelections/solverFieldSelection/solverFieldSelection.C at line 85
    Valid solver fields are: 3(U nuTilda p)Time = 2

velocityDampingConstraint velocityDamping damped 0 (0%) of cells, with max limit 300
[INFO] MatrixAssemblyU: 1635.201 [ms]
[OGL LOG][Proc: 0]: global_index_init: 0.022 [ms]
[OGL LOG][Proc: 0]Ux_local_coeffs: call_update: 0.006 [ms]
[OGL LOG][Proc: 0]Ux_non_local_coeffs: call_update: 0 [ms]
[OGL LOG][Proc: 0]Ux: update_local_matrix_data: 34.042 [ms]
[OGL LOG][Proc: 0]Ux: update_non_local_matrix_data: 0.16 [ms]
[OGL LOG][Proc: 0]Ux_matrix: call_update: 9.686999999999999 [ms]
[OGL LOG][Proc: 0]Ux_rhs: call_update: 3.211 [ms]
[OGL LOG][Preconditioner.H:121] Generate preconditioner BJ MaxBlockSize 1
[OGL LOG][Proc: 0]Ux: init_precond: 0.751 [ms]
[OGL LOG][StoppingCriterion.H:373] Creating stopping criterion with minIter 28 frequency 1
[OGL LOG][Proc: 0]Ux: generate_solver: 0.002 [ms]
[OGL LOG][Proc: 0]Ux: solve: 105.517 [ms]
[OGL LOG][Proc: 0]Ux: copy_x_back: 4.196 [ms]
[OGL LOG][lduLduBase.H:336] 
Statistics:
	Time per iteration: 7536 [mu s]
	Time per residual norm calculation: 290.000000 [mu s]
	Time per iteration and DOF: 0.398279 [ns]
	Retrieve results bandwidth 2.710000 [GByte/s]
[OGL LOG][Proc: 0]Ux: solve_multi_gpu: 124.883 [ms]
BJhipGKOBiCGStab:  Solving for Ux, Initial residual = 0.6038022214559911, Final residual = 0.03795557771171205, No Iterations 14
[OGL LOG][Proc: 0]: global_index_init: 0.103 [ms]
[OGL LOG][Proc: 0]Uy_local_coeffs: call_update: 0 [ms]
[OGL LOG][Proc: 0]Uy_non_local_coeffs: call_update: 0 [ms]
[OGL LOG][Proc: 0]Uy: update_local_matrix_data: 34.181 [ms]
[OGL LOG][Proc: 0]Uy: update_non_local_matrix_data: 0.185 [ms]
[OGL LOG][Proc: 0]Uy_matrix: call_update: 8.929 [ms]
[OGL LOG][Proc: 0]Uy_rhs: call_update: 5.538 [ms]
[OGL LOG][Preconditioner.H:121] Generate preconditioner BJ MaxBlockSize 1
[OGL LOG][Proc: 0]Uy: init_precond: 0.749 [ms]
[OGL LOG][StoppingCriterion.H:373] Creating stopping criterion with minIter 62 frequency 1
[OGL LOG][Proc: 0]Uy: generate_solver: 0.002 [ms]
[OGL LOG][Proc: 0]Uy: solve: 162.64 [ms]
[OGL LOG][Proc: 0]Uy: copy_x_back: 4.055 [ms]
[OGL LOG][lduLduBase.H:336] 
Statistics:
	Time per iteration: 5246 [mu s]
	Time per residual norm calculation: 287.000000 [mu s]
	Time per iteration and DOF: 0.277252 [ns]
	Retrieve results bandwidth 2.804000 [GByte/s]
[OGL LOG][Proc: 0]Uy: solve_multi_gpu: 183.417 [ms]
BJhipGKOBiCGStab:  Solving for Uy, Initial residual = 0.9976639442876624, Final residual = 0.001248760180995245, No Iterations 31
[OGL LOG][Proc: 0]: global_index_init: 0.127 [ms]
[OGL LOG][Proc: 0]Uz_local_coeffs: call_update: 0 [ms]
[OGL LOG][Proc: 0]Uz_non_local_coeffs: call_update: 0 [ms]
[OGL LOG][Proc: 0]Uz: update_local_matrix_data: 33.72 [ms]
[OGL LOG][Proc: 0]Uz: update_non_local_matrix_data: 0.154 [ms]
[OGL LOG][Proc: 0]Uz_matrix: call_update: 10.618 [ms]
[OGL LOG][Proc: 0]Uz_rhs: call_update: 6.146 [ms]
[OGL LOG][Preconditioner.H:121] Generate preconditioner BJ MaxBlockSize 1
[OGL LOG][Proc: 0]Uz: init_precond: 0.785 [ms]
[OGL LOG][StoppingCriterion.H:373] Creating stopping criterion with minIter 1 frequency 1
[OGL LOG][Proc: 0]Uz: generate_solver: 0.002 [ms]
[OGL LOG][Proc: 0]Uz: solve: 103.741 [ms]
[OGL LOG][Proc: 0]Uz: copy_x_back: 4.179 [ms]
[OGL LOG][lduLduBase.H:336] 
Statistics:
	Time per iteration: 9431 [mu s]
	Time per residual norm calculation: 332.000000 [mu s]
	Time per iteration and DOF: 0.498430 [ns]
	Retrieve results bandwidth 2.721000 [GByte/s]
[OGL LOG][Proc: 0]Uz: solve_multi_gpu: 126.976 [ms]
BJhipGKOBiCGStab:  Solving for Uz, Initial residual = 0.9999754164375856, Final residual = 0.07567173133579691, No Iterations 11
[INFO] MomentumPredictor: 657.6180000000001 [ms]
[INFO] MatrixAssemblyPI: 262.471 [ms]
[INFO] MatrixAssemblyPII: 129.589 [ms]
GAMG:  Solving for p, Initial residual = 0.2203483777208217, Final residual = 0.001915175759667288, No Iterations 13
[INFO] SolveP: 1921.105 [ms]
time step continuity errors : sum local = 0.03944769017736564, global = -0.0004242423480987345, cumulative = -0.0004157016088028115
[INFO] postSolveP: 70.033 [ms]
[OGL LOG][Proc: 0]: global_index_init: 0.044 [ms]
[OGL LOG][Proc: 0]nuTilda_local_coeffs: call_update: 0 [ms]
[OGL LOG][Proc: 0]nuTilda_non_local_coeffs: call_update: 0 [ms]
[OGL LOG][Proc: 0]nuTilda: update_local_matrix_data: 34.866 [ms]
[OGL LOG][Proc: 0]nuTilda: update_non_local_matrix_data: 0.158 [ms]
[OGL LOG][Proc: 0]nuTilda_matrix: call_update: 9.365 [ms]
[OGL LOG][Proc: 0]nuTilda_rhs: call_update: 4.838 [ms]
[OGL LOG][Preconditioner.H:121] Generate preconditioner BJ MaxBlockSize 1
[OGL LOG][Proc: 0]nuTilda: init_precond: 0.8070000000000001 [ms]
[OGL LOG][StoppingCriterion.H:373] Creating stopping criterion with minIter 3 frequency 1
[OGL LOG][Proc: 0]nuTilda: generate_solver: 0.002 [ms]
[OGL LOG][Proc: 0]nuTilda: solve: 76.117 [ms]
[OGL LOG][Proc: 0]nuTilda: copy_x_back: 4.191 [ms]
[OGL LOG][lduLduBase.H:336] 
Statistics:
	Time per iteration: 38058 [mu s]
	Time per residual norm calculation: 586.000000 [mu s]
	Time per iteration and DOF: 2.011373 [ns]
	Retrieve results bandwidth 2.713000 [GByte/s]
[OGL LOG][Proc: 0]nuTilda: solve_multi_gpu: 96.824 [ms]
BJhipGKOBiCGStab:  Solving for nuTilda, Initial residual = 0.403218739272935, Final residual = 0.006106890083658352, No Iterations 2
[INFO] TimeStep: 5703.727 [ms]
ExecutionTime = 42.07 s  ClockTime = 43 s

Time = 3

velocityDampingConstraint velocityDamping damped 2681 (0.01%) of cells, with max limit 300
[INFO] MatrixAssemblyU: 1667.785 [ms]
[OGL LOG][Proc: 0]: global_index_init: 0.264 [ms]
[OGL LOG][Proc: 0]Ux_local_coeffs: call_update: 0 [ms]
[OGL LOG][Proc: 0]Ux_non_local_coeffs: call_update: 0 [ms]
[OGL LOG][Proc: 0]Ux: update_local_matrix_data: 33.477 [ms]
[OGL LOG][Proc: 0]Ux: update_non_local_matrix_data: 0.178 [ms]
[OGL LOG][Proc: 0]Ux_matrix: call_update: 9.492000000000001 [ms]
[OGL LOG][Proc: 0]Ux_rhs: call_update: 10.632 [ms]
[OGL LOG][Preconditioner.H:121] Generate preconditioner BJ MaxBlockSize 1
[OGL LOG][Proc: 0]Ux: init_precond: 0.772 [ms]
[OGL LOG][StoppingCriterion.H:373] Creating stopping criterion with minIter 17 frequency 1
[OGL LOG][Proc: 0]Ux: generate_solver: 0.003 [ms]
[OGL LOG][Proc: 0]Ux: solve: 114.028 [ms]
[OGL LOG][Proc: 0]Ux: copy_x_back: 4.072 [ms]
[OGL LOG][lduLduBase.H:336] 
Statistics:
	Time per iteration: 8144 [mu s]
	Time per residual norm calculation: 346.000000 [mu s]
	Time per iteration and DOF: 0.430412 [ns]
	Retrieve results bandwidth 2.793000 [GByte/s]
[OGL LOG][Proc: 0]Ux: solve_multi_gpu: 140.509 [ms]
BJhipGKOBiCGStab:  Solving for Ux, Initial residual = 0.1287506121556818, Final residual = 0.006109122549937384, No Iterations 14
[OGL LOG][Proc: 0]: global_index_init: 0.588 [ms]
[OGL LOG][Proc: 0]Uy_local_coeffs: call_update: 0 [ms]
[OGL LOG][Proc: 0]Uy_non_local_coeffs: call_update: 0 [ms]
[OGL LOG][Proc: 0]Uy: update_local_matrix_data: 34.176 [ms]
[OGL LOG][Proc: 0]Uy: update_non_local_matrix_data: 0.144 [ms]
[OGL LOG][Proc: 0]Uy_matrix: call_update: 11.225 [ms]
[OGL LOG][Proc: 0]Uy_rhs: call_update: 7.732 [ms]
[OGL LOG][Preconditioner.H:121] Generate preconditioner BJ MaxBlockSize 1
[OGL LOG][Proc: 0]Uy: init_precond: 0.761 [ms]
[OGL LOG][StoppingCriterion.H:373] Creating stopping criterion with minIter 37 frequency 1
[OGL LOG][Proc: 0]Uy: generate_solver: 0.003 [ms]
[OGL LOG][Proc: 0]Uy: solve: 129.168 [ms]
[OGL LOG][Proc: 0]Uy: copy_x_back: 4.152 [ms]
[OGL LOG][lduLduBase.H:336] 
Statistics:
	Time per iteration: 6798 [mu s]
	Time per residual norm calculation: 338.000000 [mu s]
	Time per iteration and DOF: 0.359276 [ns]
	Retrieve results bandwidth 2.739000 [GByte/s]
[OGL LOG][Proc: 0]Uy: solve_multi_gpu: 154.529 [ms]
BJhipGKOBiCGStab:  Solving for Uy, Initial residual = 0.285578696660699, Final residual = 0.007332623716164144, No Iterations 19
[OGL LOG][Proc: 0]: global_index_init: 1.06 [ms]
[OGL LOG][Proc: 0]Uz_local_coeffs: call_update: 0 [ms]
[OGL LOG][Proc: 0]Uz_non_local_coeffs: call_update: 0 [ms]
[OGL LOG][Proc: 0]Uz: update_local_matrix_data: 33.035 [ms]
[OGL LOG][Proc: 0]Uz: update_non_local_matrix_data: 0.158 [ms]
[OGL LOG][Proc: 0]Uz_matrix: call_update: 10.609 [ms]
[OGL LOG][Proc: 0]Uz_rhs: call_update: 8.277000000000001 [ms]
[OGL LOG][Preconditioner.H:121] Generate preconditioner BJ MaxBlockSize 1
[OGL LOG][Proc: 0]Uz: init_precond: 0.766 [ms]
[OGL LOG][StoppingCriterion.H:373] Creating stopping criterion with minIter 13 frequency 1
[OGL LOG][Proc: 0]Uz: generate_solver: 0.003 [ms]
[OGL LOG][Proc: 0]Uz: solve: 107.125 [ms]
[OGL LOG][Proc: 0]Uz: copy_x_back: 4.067 [ms]
[OGL LOG][lduLduBase.H:336] 
Statistics:
	Time per iteration: 8927 [mu s]
	Time per residual norm calculation: 358.000000 [mu s]
	Time per iteration and DOF: 0.471794 [ns]
	Retrieve results bandwidth 2.796000 [GByte/s]
[OGL LOG][Proc: 0]Uz: solve_multi_gpu: 132.362 [ms]
BJhipGKOBiCGStab:  Solving for Uz, Initial residual = 0.2638351059092046, Final residual = 0.02111636524830801, No Iterations 12
[INFO] MomentumPredictor: 649.684 [ms]
[INFO] MatrixAssemblyPI: 263.279 [ms]
[INFO] MatrixAssemblyPII: 130.648 [ms]
GAMG:  Solving for p, Initial residual = 0.188559395000275, Final residual = 0.001733847990729586, No Iterations 9
[INFO] SolveP: 1362.759 [ms]
time step continuity errors : sum local = 0.02149543610387745, global = -5.158097921371572e-06, cumulative = -0.0004208597067241831
[INFO] postSolveP: 71.11499999999999 [ms]
[OGL LOG][Proc: 0]: global_index_init: 0.306 [ms]
[OGL LOG][Proc: 0]nuTilda_local_coeffs: call_update: 0 [ms]
[OGL LOG][Proc: 0]nuTilda_non_local_coeffs: call_update: 0 [ms]
[OGL LOG][Proc: 0]nuTilda: update_local_matrix_data: 35.14 [ms]
[OGL LOG][Proc: 0]nuTilda: update_non_local_matrix_data: 0.213 [ms]
[OGL LOG][Proc: 0]nuTilda_matrix: call_update: 10.264 [ms]
[OGL LOG][Proc: 0]nuTilda_rhs: call_update: 6.243 [ms]
[OGL LOG][Preconditioner.H:121] Generate preconditioner BJ MaxBlockSize 1
[OGL LOG][Proc: 0]nuTilda: init_precond: 0.75 [ms]
[OGL LOG][StoppingCriterion.H:373] Creating stopping criterion with minIter 2 frequency 1
[OGL LOG][Proc: 0]nuTilda: generate_solver: 0.002 [ms]
[OGL LOG][Proc: 0]nuTilda: solve: 75.643 [ms]
[OGL LOG][Proc: 0]nuTilda: copy_x_back: 4.397 [ms]
[OGL LOG][lduLduBase.H:336] 
Statistics:
	Time per iteration: 37821 [mu s]
	Time per residual norm calculation: 393.000000 [mu s]
	Time per iteration and DOF: 1.998847 [ns]
	Retrieve results bandwidth 2.586000 [GByte/s]
[OGL LOG][Proc: 0]nuTilda: solve_multi_gpu: 98.834 [ms]
BJhipGKOBiCGStab:  Solving for nuTilda, Initial residual = 0.1893495667059416, Final residual = 0.01396615472594864, No Iterations 2
bounding nuTilda, min: -4.409104245921698e-05 max: 0.0009110922388329105 average: 7.964369272926289e-05
[INFO] TimeStep: 5244.079 [ms]
ExecutionTime = 48.64 s  ClockTime = 49 s

Time = 4

velocityDampingConstraint velocityDamping damped 264 (0%) of cells, with max limit 300
[INFO] MatrixAssemblyU: 1717.78 [ms]
[OGL LOG][Proc: 0]: global_index_init: 0.206 [ms]
[OGL LOG][Proc: 0]Ux_local_coeffs: call_update: 0 [ms]
[OGL LOG][Proc: 0]Ux_non_local_coeffs: call_update: 0 [ms]
[OGL LOG][Proc: 0]Ux: update_local_matrix_data: 34.122 [ms]
[OGL LOG][Proc: 0]Ux: update_non_local_matrix_data: 0.16 [ms]
[OGL LOG][Proc: 0]Ux_matrix: call_update: 14.838 [ms]
[OGL LOG][Proc: 0]Ux_rhs: call_update: 2.427 [ms]
[OGL LOG][Preconditioner.H:121] Generate preconditioner BJ MaxBlockSize 1
[OGL LOG][Proc: 0]Ux: init_precond: 0.8170000000000001 [ms]
[OGL LOG][StoppingCriterion.H:373] Creating stopping criterion with minIter 16 frequency 1
[OGL LOG][Proc: 0]Ux: generate_solver: 0.002 [ms]
[OGL LOG][Proc: 0]Ux: solve: 98.88200000000001 [ms]
[OGL LOG][Proc: 0]Ux: copy_x_back: 3.997 [ms]
[OGL LOG][lduLduBase.H:336] 
Statistics:
	Time per iteration: 10986 [mu s]
	Time per residual norm calculation: 315.000000 [mu s]
	Time per iteration and DOF: 0.580612 [ns]
	Retrieve results bandwidth 2.845000 [GByte/s]
[OGL LOG][Proc: 0]Ux: solve_multi_gpu: 122.502 [ms]
BJhipGKOBiCGStab:  Solving for Ux, Initial residual = 0.1641159611340988, Final residual = 0.01464281966715804, No Iterations 9
[OGL LOG][Proc: 0]: global_index_init: 0.322 [ms]
[OGL LOG][Proc: 0]Uy_local_coeffs: call_update: 0 [ms]
[OGL LOG][Proc: 0]Uy_non_local_coeffs: call_update: 0 [ms]
[OGL LOG][Proc: 0]Uy: update_local_matrix_data: 34.695 [ms]
[OGL LOG][Proc: 0]Uy: update_non_local_matrix_data: 0.158 [ms]
[OGL LOG][Proc: 0]Uy_matrix: call_update: 12.831 [ms]
[OGL LOG][Proc: 0]Uy_rhs: call_update: 5.132 [ms]
[OGL LOG][Preconditioner.H:121] Generate preconditioner BJ MaxBlockSize 1
[OGL LOG][Proc: 0]Uy: init_precond: 0.763 [ms]
[OGL LOG][StoppingCriterion.H:373] Creating stopping criterion with minIter 22 frequency 1
[OGL LOG][Proc: 0]Uy: generate_solver: 0.002 [ms]
[OGL LOG][Proc: 0]Uy: solve: 103.413 [ms]
[OGL LOG][Proc: 0]Uy: copy_x_back: 4.06 [ms]
[OGL LOG][lduLduBase.H:336] 
Statistics:
	Time per iteration: 8617 [mu s]
	Time per residual norm calculation: 363.000000 [mu s]
	Time per iteration and DOF: 0.455410 [ns]
	Retrieve results bandwidth 2.801000 [GByte/s]
[OGL LOG][Proc: 0]Uy: solve_multi_gpu: 127.684 [ms]
BJhipGKOBiCGStab:  Solving for Uy, Initial residual = 0.1877230353191853, Final residual = 0.01503026073041686, No Iterations 12
[OGL LOG][Proc: 0]: global_index_init: 0.774 [ms]
[OGL LOG][Proc: 0]Uz_local_coeffs: call_update: 0 [ms]
[OGL LOG][Proc: 0]Uz_non_local_coeffs: call_update: 0 [ms]
[OGL LOG][Proc: 0]Uz: update_local_matrix_data: 34.172 [ms]
[OGL LOG][Proc: 0]Uz: update_non_local_matrix_data: 0.222 [ms]
[OGL LOG][Proc: 0]Uz_matrix: call_update: 10.053 [ms]
[OGL LOG][Proc: 0]Uz_rhs: call_update: 5.662 [ms]
[OGL LOG][Preconditioner.H:121] Generate preconditioner BJ MaxBlockSize 1
[OGL LOG][Proc: 0]Uz: init_precond: 0.8180000000000001 [ms]
[OGL LOG][StoppingCriterion.H:373] Creating stopping criterion with minIter 14 frequency 1
[OGL LOG][Proc: 0]Uz: generate_solver: 0.002 [ms]
[OGL LOG][Proc: 0]Uz: solve: 106.362 [ms]
[OGL LOG][Proc: 0]Uz: copy_x_back: 4.054 [ms]
[OGL LOG][lduLduBase.H:336] 
Statistics:
	Time per iteration: 8863 [mu s]
	Time per residual norm calculation: 364.000000 [mu s]
	Time per iteration and DOF: 0.468411 [ns]
	Retrieve results bandwidth 2.805000 [GByte/s]
[OGL LOG][Proc: 0]Uz: solve_multi_gpu: 128.44 [ms]
BJhipGKOBiCGStab:  Solving for Uz, Initial residual = 0.2029495752829222, Final residual = 0.01852962690996364, No Iterations 12
[INFO] MomentumPredictor: 602.431 [ms]
[INFO] MatrixAssemblyPI: 263.078 [ms]
[INFO] MatrixAssemblyPII: 129.608 [ms]
GAMG:  Solving for p, Initial residual = 0.1185790802739871, Final residual = 0.001027091752780845, No Iterations 9
[INFO] SolveP: 1362.507 [ms]
time step continuity errors : sum local = 0.01422537115970542, global = -0.0002471486714308416, cumulative = -0.0006680083781550248
[INFO] postSolveP: 69.964 [ms]
[OGL LOG][Proc: 0]: global_index_init: 0.08500000000000001 [ms]
[OGL LOG][Proc: 0]nuTilda_local_coeffs: call_update: 0 [ms]
[OGL LOG][Proc: 0]nuTilda_non_local_coeffs: call_update: 0 [ms]
[OGL LOG][Proc: 0]nuTilda: update_local_matrix_data: 35.123 [ms]
[OGL LOG][Proc: 0]nuTilda: update_non_local_matrix_data: 0.165 [ms]
[OGL LOG][Proc: 0]nuTilda_matrix: call_update: 9.297000000000001 [ms]
[OGL LOG][Proc: 0]nuTilda_rhs: call_update: 9.074 [ms]
[OGL LOG][Preconditioner.H:121] Generate preconditioner BJ MaxBlockSize 1
[OGL LOG][Proc: 0]nuTilda: init_precond: 0.757 [ms]
[OGL LOG][StoppingCriterion.H:373] Creating stopping criterion with minIter 2 frequency 1
[OGL LOG][Proc: 0]nuTilda: generate_solver: 0.002 [ms]
[OGL LOG][Proc: 0]nuTilda: solve: 78.47200000000001 [ms]
[OGL LOG][Proc: 0]nuTilda: copy_x_back: 4.426 [ms]
[OGL LOG][lduLduBase.H:336] 
Statistics:
	Time per iteration: 39236 [mu s]
	Time per residual norm calculation: 379.000000 [mu s]
	Time per iteration and DOF: 2.073630 [ns]
	Retrieve results bandwidth 2.569000 [GByte/s]
[OGL LOG][Proc: 0]nuTilda: solve_multi_gpu: 103.553 [ms]
BJhipGKOBiCGStab:  Solving for nuTilda, Initial residual = 0.1121217261500991, Final residual = 0.008912883599792117, No Iterations 2
bounding nuTilda, min: -3.76145742973577e-06 max: 0.001047588335290958 average: 8.455808052407818e-05
[INFO] TimeStep: 5242.206 [ms]
ExecutionTime = 55.24 s  ClockTime = 56 s

Time = 5

velocityDampingConstraint velocityDamping damped 131 (0%) of cells, with max limit 300
[INFO] MatrixAssemblyU: 1706.083 [ms]
[OGL LOG][Proc: 0]: global_index_init: 0.023 [ms]
[OGL LOG][Proc: 0]Ux_local_coeffs: call_update: 0.001 [ms]
[OGL LOG][Proc: 0]Ux_non_local_coeffs: call_update: 0 [ms]
[OGL LOG][Proc: 0]Ux: update_local_matrix_data: 34.281 [ms]
[OGL LOG][Proc: 0]Ux: update_non_local_matrix_data: 0.159 [ms]
[OGL LOG][Proc: 0]Ux_matrix: call_update: 15.004 [ms]
[OGL LOG][Proc: 0]Ux_rhs: call_update: 9.949 [ms]
[OGL LOG][Preconditioner.H:121] Generate preconditioner BJ MaxBlockSize 1
[OGL LOG][Proc: 0]Ux: init_precond: 0.768 [ms]
[OGL LOG][StoppingCriterion.H:373] Creating stopping criterion with minIter 11 frequency 1
[OGL LOG][Proc: 0]Ux: generate_solver: 0.003 [ms]
[OGL LOG][Proc: 0]Ux: solve: 115.874 [ms]
[OGL LOG][Proc: 0]Ux: copy_x_back: 4.135 [ms]
[OGL LOG][lduLduBase.H:336] 
Statistics:
	Time per iteration: 9656 [mu s]
	Time per residual norm calculation: 362.000000 [mu s]
	Time per iteration and DOF: 0.510321 [ns]
	Retrieve results bandwidth 2.750000 [GByte/s]
[OGL LOG][Proc: 0]Ux: solve_multi_gpu: 147.222 [ms]
BJhipGKOBiCGStab:  Solving for Ux, Initial residual = 0.06372821036807054, Final residual = 0.005241030215184848, No Iterations 12
[OGL LOG][Proc: 0]: global_index_init: 0.269 [ms]
[OGL LOG][Proc: 0]Uy_local_coeffs: call_update: 0 [ms]
[OGL LOG][Proc: 0]Uy_non_local_coeffs: call_update: 0 [ms]
[OGL LOG][Proc: 0]Uy: update_local_matrix_data: 34.517 [ms]
[OGL LOG][Proc: 0]Uy: update_non_local_matrix_data: 0.142 [ms]
[OGL LOG][Proc: 0]Uy_matrix: call_update: 10.692 [ms]
[OGL LOG][Proc: 0]Uy_rhs: call_update: 8.382 [ms]
[OGL LOG][Preconditioner.H:121] Generate preconditioner BJ MaxBlockSize 1
[OGL LOG][Proc: 0]Uy: init_precond: 0.804 [ms]
[OGL LOG][StoppingCriterion.H:373] Creating stopping criterion with minIter 14 frequency 1
[OGL LOG][Proc: 0]Uy: generate_solver: 0.002 [ms]
[OGL LOG][Proc: 0]Uy: solve: 104.027 [ms]
[OGL LOG][Proc: 0]Uy: copy_x_back: 4.111 [ms]
[OGL LOG][lduLduBase.H:336] 
Statistics:
	Time per iteration: 9457 [mu s]
	Time per residual norm calculation: 268.000000 [mu s]
	Time per iteration and DOF: 0.499804 [ns]
	Retrieve results bandwidth 2.766000 [GByte/s]
[OGL LOG][Proc: 0]Uy: solve_multi_gpu: 129.521 [ms]
BJhipGKOBiCGStab:  Solving for Uy, Initial residual = 0.131976777986819, Final residual = 0.01235132697109387, No Iterations 11
[OGL LOG][Proc: 0]: global_index_init: 0.8320000000000001 [ms]
[OGL LOG][Proc: 0]Uz_local_coeffs: call_update: 0 [ms]
[OGL LOG][Proc: 0]Uz_non_local_coeffs: call_update: 0 [ms]
[OGL LOG][Proc: 0]Uz: update_local_matrix_data: 34.195 [ms]
[OGL LOG][Proc: 0]Uz: update_non_local_matrix_data: 0.149 [ms]
[OGL LOG][Proc: 0]Uz_matrix: call_update: 9.272 [ms]
[OGL LOG][Proc: 0]Uz_rhs: call_update: 9.972 [ms]
[OGL LOG][Preconditioner.H:121] Generate preconditioner BJ MaxBlockSize 1
[OGL LOG][Proc: 0]Uz: init_precond: 0.761 [ms]
[OGL LOG][StoppingCriterion.H:373] Creating stopping criterion with minIter 14 frequency 1
[OGL LOG][Proc: 0]Uz: generate_solver: 0.003 [ms]
[OGL LOG][Proc: 0]Uz: solve: 105.558 [ms]
[OGL LOG][Proc: 0]Uz: copy_x_back: 4.115 [ms]
[OGL LOG][lduLduBase.H:336] 
Statistics:
	Time per iteration: 9596 [mu s]
	Time per residual norm calculation: 364.000000 [mu s]
	Time per iteration and DOF: 0.507150 [ns]
	Retrieve results bandwidth 2.764000 [GByte/s]
[OGL LOG][Proc: 0]Uz: solve_multi_gpu: 131.215 [ms]
BJhipGKOBiCGStab:  Solving for Uz, Initial residual = 0.1449305416690763, Final residual = 0.01142404941418904, No Iterations 11
[INFO] MomentumPredictor: 635.419 [ms]
[INFO] MatrixAssemblyPI: 263.294 [ms]
[INFO] MatrixAssemblyPII: 129.444 [ms]
GAMG:  Solving for p, Initial residual = 0.1158845718217406, Final residual = 0.0009599778802672335, No Iterations 9
[INFO] SolveP: 1366.222 [ms]
time step continuity errors : sum local = 0.01003630356621819, global = -0.0001438952086100775, cumulative = -0.0008119035867651023
[INFO] postSolveP: 72.33 [ms]
[OGL LOG][Proc: 0]: global_index_init: 0.99 [ms]
[OGL LOG][Proc: 0]nuTilda_local_coeffs: call_update: 0 [ms]
[OGL LOG][Proc: 0]nuTilda_non_local_coeffs: call_update: 0 [ms]
[OGL LOG][Proc: 0]nuTilda: update_local_matrix_data: 34.508 [ms]
[OGL LOG][Proc: 0]nuTilda: update_non_local_matrix_data: 0.163 [ms]
[OGL LOG][Proc: 0]nuTilda_matrix: call_update: 9.073 [ms]
[OGL LOG][Proc: 0]nuTilda_rhs: call_update: 9.353 [ms]
[OGL LOG][Preconditioner.H:121] Generate preconditioner BJ MaxBlockSize 1
[OGL LOG][Proc: 0]nuTilda: init_precond: 0.757 [ms]
[OGL LOG][StoppingCriterion.H:373] Creating stopping criterion with minIter 2 frequency 1
[OGL LOG][Proc: 0]nuTilda: generate_solver: 0.003 [ms]
[OGL LOG][Proc: 0]nuTilda: solve: 79.416 [ms]
[OGL LOG][Proc: 0]nuTilda: copy_x_back: 4.297 [ms]
[OGL LOG][lduLduBase.H:336] 
Statistics:
	Time per iteration: 39708 [mu s]
	Time per residual norm calculation: 371.000000 [mu s]
	Time per iteration and DOF: 2.098575 [ns]
	Retrieve results bandwidth 2.646000 [GByte/s]
[OGL LOG][Proc: 0]nuTilda: solve_multi_gpu: 104.593 [ms]
BJhipGKOBiCGStab:  Solving for nuTilda, Initial residual = 0.06223082031205331, Final residual = 0.005182961741543803, No Iterations 2
bounding nuTilda, min: -4.036842923511763e-05 max: 0.001251945479553642 average: 8.899794386692138e-05
[INFO] TimeStep: 5272.179 [ms]
ExecutionTime = 61.87 s  ClockTime = 62 s

Time = 6

velocityDampingConstraint velocityDamping damped 0 (0%) of cells, with max limit 300
[INFO] MatrixAssemblyU: 1692.482 [ms]
[OGL LOG][Proc: 0]: global_index_init: 0.265 [ms]
[OGL LOG][Proc: 0]Ux_local_coeffs: call_update: 0 [ms]
[OGL LOG][Proc: 0]Ux_non_local_coeffs: call_update: 0 [ms]
[OGL LOG][Proc: 0]Ux: update_local_matrix_data: 34.059 [ms]
[OGL LOG][Proc: 0]Ux: update_non_local_matrix_data: 0.173 [ms]
[OGL LOG][Proc: 0]Ux_matrix: call_update: 11.662 [ms]
[OGL LOG][Proc: 0]Ux_rhs: call_update: 6.744 [ms]
[OGL LOG][Preconditioner.H:121] Generate preconditioner BJ MaxBlockSize 1
[OGL LOG][Proc: 0]Ux: init_precond: 0.8180000000000001 [ms]
[OGL LOG][StoppingCriterion.H:373] Creating stopping criterion with minIter 14 frequency 1
[OGL LOG][Proc: 0]Ux: generate_solver: 0.003 [ms]
[OGL LOG][Proc: 0]Ux: solve: 106.096 [ms]
[OGL LOG][Proc: 0]Ux: copy_x_back: 4.065 [ms]
[OGL LOG][lduLduBase.H:336] 
Statistics:
	Time per iteration: 10609 [mu s]
	Time per residual norm calculation: 270.000000 [mu s]
	Time per iteration and DOF: 0.560688 [ns]
	Retrieve results bandwidth 2.798000 [GByte/s]
[OGL LOG][Proc: 0]Ux: solve_multi_gpu: 131.035 [ms]
BJhipGKOBiCGStab:  Solving for Ux, Initial residual = 0.0535842683497493, Final residual = 0.004890392653208884, No Iterations 10
[OGL LOG][Proc: 0]: global_index_init: 0.042 [ms]
[OGL LOG][Proc: 0]Uy_local_coeffs: call_update: 0 [ms]
[OGL LOG][Proc: 0]Uy_non_local_coeffs: call_update: 0 [ms]
[OGL LOG][Proc: 0]Uy: update_local_matrix_data: 33.914 [ms]
[OGL LOG][Proc: 0]Uy: update_non_local_matrix_data: 0.162 [ms]
[OGL LOG][Proc: 0]Uy_matrix: call_update: 8.476000000000001 [ms]
[OGL LOG][Proc: 0]Uy_rhs: call_update: 7.503 [ms]
[OGL LOG][Preconditioner.H:121] Generate preconditioner BJ MaxBlockSize 1
[OGL LOG][Proc: 0]Uy: init_precond: 0.796 [ms]
[OGL LOG][StoppingCriterion.H:373] Creating stopping criterion with minIter 13 frequency 1
[OGL LOG][Proc: 0]Uy: generate_solver: 0.002 [ms]
[OGL LOG][Proc: 0]Uy: solve: 100.881 [ms]
[OGL LOG][Proc: 0]Uy: copy_x_back: 4.043 [ms]
[OGL LOG][lduLduBase.H:336] 
Statistics:
	Time per iteration: 9171 [mu s]
	Time per residual norm calculation: 270.000000 [mu s]
	Time per iteration and DOF: 0.484689 [ns]
	Retrieve results bandwidth 2.813000 [GByte/s]
[OGL LOG][Proc: 0]Uy: solve_multi_gpu: 123.194 [ms]
BJhipGKOBiCGStab:  Solving for Uy, Initial residual = 0.09272351572806473, Final residual = 0.00898984951144734, No Iterations 11
[OGL LOG][Proc: 0]: global_index_init: 0.19 [ms]
[OGL LOG][Proc: 0]Uz_local_coeffs: call_update: 0 [ms]
[OGL LOG][Proc: 0]Uz_non_local_coeffs: call_update: 0 [ms]
[OGL LOG][Proc: 0]Uz: update_local_matrix_data: 32.999 [ms]
[OGL LOG][Proc: 0]Uz: update_non_local_matrix_data: 0.158 [ms]
[OGL LOG][Proc: 0]Uz_matrix: call_update: 9.733000000000001 [ms]
[OGL LOG][Proc: 0]Uz_rhs: call_update: 4.895 [ms]
[OGL LOG][Preconditioner.H:121] Generate preconditioner BJ MaxBlockSize 1
[OGL LOG][Proc: 0]Uz: init_precond: 0.8140000000000001 [ms]
[OGL LOG][StoppingCriterion.H:373] Creating stopping criterion with minIter 13 frequency 1
[OGL LOG][Proc: 0]Uz: generate_solver: 0.002 [ms]
[OGL LOG][Proc: 0]Uz: solve: 97.215 [ms]
[OGL LOG][Proc: 0]Uz: copy_x_back: 4.05 [ms]
[OGL LOG][lduLduBase.H:336] 
Statistics:
	Time per iteration: 8837 [mu s]
	Time per residual norm calculation: 363.000000 [mu s]
	Time per iteration and DOF: 0.467037 [ns]
	Retrieve results bandwidth 2.808000 [GByte/s]
[OGL LOG][Proc: 0]Uz: solve_multi_gpu: 118.243 [ms]
BJhipGKOBiCGStab:  Solving for Uz, Initial residual = 0.1054906397491459, Final residual = 0.009507408309932448, No Iterations 11
[INFO] MomentumPredictor: 594.515 [ms]
[INFO] MatrixAssemblyPI: 263.169 [ms]
[INFO] MatrixAssemblyPII: 129.625 [ms]
GAMG:  Solving for p, Initial residual = 0.1082707422567712, Final residual = 0.001039338223311627, No Iterations 7
[INFO] SolveP: 1082.502 [ms]
time step continuity errors : sum local = 0.009543200043267003, global = 0.0002419590194904005, cumulative = -0.0005699445672747018
[INFO] postSolveP: 69.77 [ms]
[OGL LOG][Proc: 0]: global_index_init: 0.489 [ms]
[OGL LOG][Proc: 0]nuTilda_local_coeffs: call_update: 0 [ms]
[OGL LOG][Proc: 0]nuTilda_non_local_coeffs: call_update: 0 [ms]
[OGL LOG][Proc: 0]nuTilda: update_local_matrix_data: 34.27 [ms]
[OGL LOG][Proc: 0]nuTilda: update_non_local_matrix_data: 0.163 [ms]
[OGL LOG][Proc: 0]nuTilda_matrix: call_update: 9.768000000000001 [ms]
[OGL LOG][Proc: 0]nuTilda_rhs: call_update: 6.446 [ms]
[OGL LOG][Preconditioner.H:121] Generate preconditioner BJ MaxBlockSize 1
[OGL LOG][Proc: 0]nuTilda: init_precond: 0.8130000000000001 [ms]
[OGL LOG][StoppingCriterion.H:373] Creating stopping criterion with minIter 2 frequency 1
[OGL LOG][Proc: 0]nuTilda: generate_solver: 0.002 [ms]
[OGL LOG][Proc: 0]nuTilda: solve: 79.712 [ms]
[OGL LOG][Proc: 0]nuTilda: copy_x_back: 4.293 [ms]
[OGL LOG][lduLduBase.H:336] 
Statistics:
	Time per iteration: 39856 [mu s]
	Time per residual norm calculation: 330.000000 [mu s]
	Time per iteration and DOF: 2.106397 [ns]
	Retrieve results bandwidth 2.649000 [GByte/s]
[OGL LOG][Proc: 0]nuTilda: solve_multi_gpu: 102.56 [ms]
BJhipGKOBiCGStab:  Solving for nuTilda, Initial residual = 0.05763909179648762, Final residual = 0.005697817587387154, No Iterations 2
bounding nuTilda, min: -8.694043056128994e-05 max: 0.001404366491780093 average: 9.068388692199469e-05
[INFO] TimeStep: 4914.151 [ms]
ExecutionTime = 68.12 s  ClockTime = 69 s

Time = 7

velocityDampingConstraint velocityDamping damped 1 (0%) of cells, with max limit 300
[INFO] MatrixAssemblyU: 1668.268 [ms]
[OGL LOG][Proc: 0]: global_index_init: 0.265 [ms]
[OGL LOG][Proc: 0]Ux_local_coeffs: call_update: 0 [ms]
[OGL LOG][Proc: 0]Ux_non_local_coeffs: call_update: 0 [ms]
[OGL LOG][Proc: 0]Ux: update_local_matrix_data: 34.326 [ms]
[OGL LOG][Proc: 0]Ux: update_non_local_matrix_data: 0.168 [ms]
[OGL LOG][Proc: 0]Ux_matrix: call_update: 12.111 [ms]
[OGL LOG][Proc: 0]Ux_rhs: call_update: 3.951 [ms]
[OGL LOG][Preconditioner.H:121] Generate preconditioner BJ MaxBlockSize 1
[OGL LOG][Proc: 0]Ux: init_precond: 0.766 [ms]
[OGL LOG][StoppingCriterion.H:373] Creating stopping criterion with minIter 12 frequency 1
[OGL LOG][Proc: 0]Ux: generate_solver: 0.002 [ms]
[OGL LOG][Proc: 0]Ux: solve: 103.997 [ms]
[OGL LOG][Proc: 0]Ux: copy_x_back: 4.399 [ms]
[OGL LOG][lduLduBase.H:336] 
Statistics:
	Time per iteration: 8666 [mu s]
	Time per residual norm calculation: 310.000000 [mu s]
	Time per iteration and DOF: 0.458000 [ns]
	Retrieve results bandwidth 2.585000 [GByte/s]
[OGL LOG][Proc: 0]Ux: solve_multi_gpu: 126.738 [ms]
BJhipGKOBiCGStab:  Solving for Ux, Initial residual = 0.0308360238266342, Final residual = 0.002601277461131994, No Iterations 12
[OGL LOG][Proc: 0]: global_index_init: 0.146 [ms]
[OGL LOG][Proc: 0]Uy_local_coeffs: call_update: 0 [ms]
[OGL LOG][Proc: 0]Uy_non_local_coeffs: call_update: 0 [ms]
[OGL LOG][Proc: 0]Uy: update_local_matrix_data: 34.311 [ms]
[OGL LOG][Proc: 0]Uy: update_non_local_matrix_data: 0.15 [ms]
[OGL LOG][Proc: 0]Uy_matrix: call_update: 9.215 [ms]
[OGL LOG][Proc: 0]Uy_rhs: call_update: 6.141 [ms]
[OGL LOG][Preconditioner.H:121] Generate preconditioner BJ MaxBlockSize 1
[OGL LOG][Proc: 0]Uy: init_precond: 0.749 [ms]
[OGL LOG][StoppingCriterion.H:373] Creating stopping criterion with minIter 13 frequency 1
[OGL LOG][Proc: 0]Uy: generate_solver: 0.003 [ms]
[OGL LOG][Proc: 0]Uy: solve: 103.389 [ms]
[OGL LOG][Proc: 0]Uy: copy_x_back: 4.105 [ms]
[OGL LOG][lduLduBase.H:336] 
Statistics:
	Time per iteration: 8615 [mu s]
	Time per residual norm calculation: 327.000000 [mu s]
	Time per iteration and DOF: 0.455304 [ns]
	Retrieve results bandwidth 2.770000 [GByte/s]
[OGL LOG][Proc: 0]Uy: solve_multi_gpu: 125.129 [ms]
BJhipGKOBiCGStab:  Solving for Uy, Initial residual = 0.08516353804493529, Final residual = 0.00761500199204472, No Iterations 12
[OGL LOG][Proc: 0]: global_index_init: 0.382 [ms]
[OGL LOG][Proc: 0]Uz_local_coeffs: call_update: 0 [ms]
[OGL LOG][Proc: 0]Uz_non_local_coeffs: call_update: 0 [ms]
[OGL LOG][Proc: 0]Uz: update_local_matrix_data: 34.133 [ms]
[OGL LOG][Proc: 0]Uz: update_non_local_matrix_data: 0.158 [ms]
[OGL LOG][Proc: 0]Uz_matrix: call_update: 9.369 [ms]
[OGL LOG][Proc: 0]Uz_rhs: call_update: 6.682 [ms]
[OGL LOG][Preconditioner.H:121] Generate preconditioner BJ MaxBlockSize 1
[OGL LOG][Proc: 0]Uz: init_precond: 0.9350000000000001 [ms]
[OGL LOG][StoppingCriterion.H:373] Creating stopping criterion with minIter 13 frequency 1
[OGL LOG][Proc: 0]Uz: generate_solver: 0.002 [ms]
[OGL LOG][Proc: 0]Uz: solve: 104.873 [ms]
[OGL LOG][Proc: 0]Uz: copy_x_back: 4.013 [ms]
[OGL LOG][lduLduBase.H:336] 
Statistics:
	Time per iteration: 8739 [mu s]
	Time per residual norm calculation: 356.000000 [mu s]
	Time per iteration and DOF: 0.461858 [ns]
	Retrieve results bandwidth 2.834000 [GByte/s]
[OGL LOG][Proc: 0]Uz: solve_multi_gpu: 127.406 [ms]
BJhipGKOBiCGStab:  Solving for Uz, Initial residual = 0.09312957326071428, Final residual = 0.007137111581019063, No Iterations 12
[INFO] MomentumPredictor: 602.316 [ms]
[INFO] MatrixAssemblyPI: 263.1 [ms]
[INFO] MatrixAssemblyPII: 130.373 [ms]
GAMG:  Solving for p, Initial residual = 0.08981098453028433, Final residual = 0.0008195360569828396, No Iterations 6
[INFO] SolveP: 939.069 [ms]
time step continuity errors : sum local = 0.007442116286060561, global = 0.0001067146583064807, cumulative = -0.000463229908968221
[INFO] postSolveP: 69.676 [ms]
[OGL LOG][Proc: 0]: global_index_init: 0.038 [ms]
[OGL LOG][Proc: 0]nuTilda_local_coeffs: call_update: 0 [ms]
[OGL LOG][Proc: 0]nuTilda_non_local_coeffs: call_update: 0 [ms]
[OGL LOG][Proc: 0]nuTilda: update_local_matrix_data: 35.164 [ms]
[OGL LOG][Proc: 0]nuTilda: update_non_local_matrix_data: 0.168 [ms]
[OGL LOG][Proc: 0]nuTilda_matrix: call_update: 14.538 [ms]
[OGL LOG][Proc: 0]nuTilda_rhs: call_update: 4.905 [ms]
[OGL LOG][Preconditioner.H:121] Generate preconditioner BJ MaxBlockSize 1
[OGL LOG][Proc: 0]nuTilda: init_precond: 0.8170000000000001 [ms]
[OGL LOG][StoppingCriterion.H:373] Creating stopping criterion with minIter 2 frequency 1
[OGL LOG][Proc: 0]nuTilda: generate_solver: 0.002 [ms]
[OGL LOG][Proc: 0]nuTilda: solve: 83.027 [ms]
[OGL LOG][Proc: 0]nuTilda: copy_x_back: 4.287 [ms]
[OGL LOG][lduLduBase.H:336] 
Statistics:
	Time per iteration: 41513 [mu s]
	Time per residual norm calculation: 310.000000 [mu s]
	Time per iteration and DOF: 2.193970 [ns]
	Retrieve results bandwidth 2.653000 [GByte/s]
[OGL LOG][Proc: 0]nuTilda: solve_multi_gpu: 109.098 [ms]
BJhipGKOBiCGStab:  Solving for nuTilda, Initial residual = 0.04649334865351143, Final residual = 0.001937545061228588, No Iterations 2
[INFO] TimeStep: 4710.137 [ms]
ExecutionTime = 74.15000000000001 s  ClockTime = 75 s

Time = 8

velocityDampingConstraint velocityDamping damped 0 (0%) of cells, with max limit 300
[INFO] MatrixAssemblyU: 1654.421 [ms]
[OGL LOG][Proc: 0]: global_index_init: 0.059 [ms]
[OGL LOG][Proc: 0]Ux_local_coeffs: call_update: 0 [ms]
[OGL LOG][Proc: 0]Ux_non_local_coeffs: call_update: 0 [ms]
[OGL LOG][Proc: 0]Ux: update_local_matrix_data: 34.651 [ms]
[OGL LOG][Proc: 0]Ux: update_non_local_matrix_data: 0.157 [ms]
[OGL LOG][Proc: 0]Ux_matrix: call_update: 10.761 [ms]
[OGL LOG][Proc: 0]Ux_rhs: call_update: 1.911 [ms]
[OGL LOG][Preconditioner.H:121] Generate preconditioner BJ MaxBlockSize 1
[OGL LOG][Proc: 0]Ux: init_precond: 0.8210000000000001 [ms]
[OGL LOG][StoppingCriterion.H:373] Creating stopping criterion with minIter 15 frequency 1
[OGL LOG][Proc: 0]Ux: generate_solver: 0.002 [ms]
[OGL LOG][Proc: 0]Ux: solve: 98.352 [ms]
[OGL LOG][Proc: 0]Ux: copy_x_back: 4.189 [ms]
[OGL LOG][lduLduBase.H:336] 
Statistics:
	Time per iteration: 8941 [mu s]
	Time per residual norm calculation: 346.000000 [mu s]
	Time per iteration and DOF: 0.472534 [ns]
	Retrieve results bandwidth 2.715000 [GByte/s]
[OGL LOG][Proc: 0]Ux: solve_multi_gpu: 117.559 [ms]
BJhipGKOBiCGStab:  Solving for Ux, Initial residual = 0.02288734710479094, Final residual = 0.002176466903562766, No Iterations 11
[OGL LOG][Proc: 0]: global_index_init: 0.039 [ms]
[OGL LOG][Proc: 0]Uy_local_coeffs: call_update: 0 [ms]
[OGL LOG][Proc: 0]Uy_non_local_coeffs: call_update: 0 [ms]
[OGL LOG][Proc: 0]Uy: update_local_matrix_data: 34.7 [ms]
[OGL LOG][Proc: 0]Uy: update_non_local_matrix_data: 0.146 [ms]
[OGL LOG][Proc: 0]Uy_matrix: call_update: 8.406000000000001 [ms]
[OGL LOG][Proc: 0]Uy_rhs: call_update: 4.119 [ms]
[OGL LOG][Preconditioner.H:121] Generate preconditioner BJ MaxBlockSize 1
[OGL LOG][Proc: 0]Uy: init_precond: 0.764 [ms]
[OGL LOG][StoppingCriterion.H:373] Creating stopping criterion with minIter 14 frequency 1
[OGL LOG][Proc: 0]Uy: generate_solver: 0.003 [ms]
[OGL LOG][Proc: 0]Uy: solve: 95.274 [ms]
[OGL LOG][Proc: 0]Uy: copy_x_back: 4.089 [ms]
[OGL LOG][lduLduBase.H:336] 
Statistics:
	Time per iteration: 9527 [mu s]
	Time per residual norm calculation: 271.000000 [mu s]
	Time per iteration and DOF: 0.503504 [ns]
	Retrieve results bandwidth 2.781000 [GByte/s]
[OGL LOG][Proc: 0]Uy: solve_multi_gpu: 114.178 [ms]
BJhipGKOBiCGStab:  Solving for Uy, Initial residual = 0.06342808012461215, Final residual = 0.005636521797935671, No Iterations 10
[OGL LOG][Proc: 0]: global_index_init: 0.635 [ms]
[OGL LOG][Proc: 0]Uz_local_coeffs: call_update: 0 [ms]
[OGL LOG][Proc: 0]Uz_non_local_coeffs: call_update: 0 [ms]
[OGL LOG][Proc: 0]Uz: update_local_matrix_data: 34.177 [ms]
[OGL LOG][Proc: 0]Uz: update_non_local_matrix_data: 0.151 [ms]
[OGL LOG][Proc: 0]Uz_matrix: call_update: 9.031000000000001 [ms]
[OGL LOG][Proc: 0]Uz_rhs: call_update: 5.089 [ms]
[OGL LOG][Preconditioner.H:121] Generate preconditioner BJ MaxBlockSize 1
[OGL LOG][Proc: 0]Uz: init_precond: 0.756 [ms]
[OGL LOG][StoppingCriterion.H:373] Creating stopping criterion with minIter 14 frequency 1
[OGL LOG][Proc: 0]Uz: generate_solver: 0.003 [ms]
[OGL LOG][Proc: 0]Uz: solve: 107.208 [ms]
[OGL LOG][Proc: 0]Uz: copy_x_back: 4.186 [ms]
[OGL LOG][lduLduBase.H:336] 
Statistics:
	Time per iteration: 9746 [mu s]
	Time per residual norm calculation: 308.000000 [mu s]
	Time per iteration and DOF: 0.515078 [ns]
	Retrieve results bandwidth 2.717000 [GByte/s]
[OGL LOG][Proc: 0]Uz: solve_multi_gpu: 127.789 [ms]
BJhipGKOBiCGStab:  Solving for Uz, Initial residual = 0.06595385725140894, Final residual = 0.005837697823483552, No Iterations 11
[INFO] MomentumPredictor: 583.753 [ms]
[INFO] MatrixAssemblyPI: 265.699 [ms]
[INFO] MatrixAssemblyPII: 130.162 [ms]
GAMG:  Solving for p, Initial residual = 0.08637979778701145, Final residual = 0.0006483155153366746, No Iterations 6
[INFO] SolveP: 940.809 [ms]
time step continuity errors : sum local = 0.006098814897286841, global = -1.001997575008207e-05, cumulative = -0.0004732498847183031
[INFO] postSolveP: 69.739 [ms]
[OGL LOG][Proc: 0]: global_index_init: 0.241 [ms]
[OGL LOG][Proc: 0]nuTilda_local_coeffs: call_update: 0 [ms]
[OGL LOG][Proc: 0]nuTilda_non_local_coeffs: call_update: 0 [ms]
[OGL LOG][Proc: 0]nuTilda: update_local_matrix_data: 34.89 [ms]
[OGL LOG][Proc: 0]nuTilda: update_non_local_matrix_data: 0.232 [ms]
[OGL LOG][Proc: 0]nuTilda_matrix: call_update: 11.582 [ms]
[OGL LOG][Proc: 0]nuTilda_rhs: call_update: 2.189 [ms]
[OGL LOG][Preconditioner.H:121] Generate preconditioner BJ MaxBlockSize 1
[OGL LOG][Proc: 0]nuTilda: init_precond: 0.764 [ms]
[OGL LOG][StoppingCriterion.H:373] Creating stopping criterion with minIter 3 frequency 1
[OGL LOG][Proc: 0]nuTilda: generate_solver: 0.002 [ms]
[OGL LOG][Proc: 0]nuTilda: solve: 79.672 [ms]
[OGL LOG][Proc: 0]nuTilda: copy_x_back: 4.276 [ms]
[OGL LOG][lduLduBase.H:336] 
Statistics:
	Time per iteration: 39836 [mu s]
	Time per residual norm calculation: 336.000000 [mu s]
	Time per iteration and DOF: 2.105340 [ns]
	Retrieve results bandwidth 2.659000 [GByte/s]
[OGL LOG][Proc: 0]nuTilda: solve_multi_gpu: 100.045 [ms]
BJhipGKOBiCGStab:  Solving for nuTilda, Initial residual = 0.05247867048867474, Final residual = 0.004246182910930634, No Iterations 2
[INFO] TimeStep: 4673.703 [ms]
ExecutionTime = 80.14 s  ClockTime = 81 s

Time = 9

velocityDampingConstraint velocityDamping damped 0 (0%) of cells, with max limit 300
[INFO] MatrixAssemblyU: 1672.125 [ms]
[OGL LOG][Proc: 0]: global_index_init: 0.059 [ms]
[OGL LOG][Proc: 0]Ux_local_coeffs: call_update: 0 [ms]
[OGL LOG][Proc: 0]Ux_non_local_coeffs: call_update: 0 [ms]
[OGL LOG][Proc: 0]Ux: update_local_matrix_data: 33.924 [ms]
[OGL LOG][Proc: 0]Ux: update_non_local_matrix_data: 0.156 [ms]
[OGL LOG][Proc: 0]Ux_matrix: call_update: 9.67 [ms]
[OGL LOG][Proc: 0]Ux_rhs: call_update: 3.351 [ms]
[OGL LOG][Preconditioner.H:121] Generate preconditioner BJ MaxBlockSize 1
[OGL LOG][Proc: 0]Ux: init_precond: 0.758 [ms]
[OGL LOG][StoppingCriterion.H:373] Creating stopping criterion with minIter 13 frequency 1
[OGL LOG][Proc: 0]Ux: generate_solver: 0.002 [ms]
[OGL LOG][Proc: 0]Ux: solve: 107.729 [ms]
[OGL LOG][Proc: 0]Ux: copy_x_back: 4.083 [ms]
[OGL LOG][lduLduBase.H:336] 
Statistics:
	Time per iteration: 8286 [mu s]
	Time per residual norm calculation: 372.000000 [mu s]
	Time per iteration and DOF: 0.437917 [ns]
	Retrieve results bandwidth 2.785000 [GByte/s]
[OGL LOG][Proc: 0]Ux: solve_multi_gpu: 127.13 [ms]
BJhipGKOBiCGStab:  Solving for Ux, Initial residual = 0.0297107045524464, Final residual = 0.001561712172512225, No Iterations 13
[OGL LOG][Proc: 0]: global_index_init: 0.11 [ms]
[OGL LOG][Proc: 0]Uy_local_coeffs: call_update: 0 [ms]
[OGL LOG][Proc: 0]Uy_non_local_coeffs: call_update: 0 [ms]
[OGL LOG][Proc: 0]Uy: update_local_matrix_data: 34.161 [ms]
[OGL LOG][Proc: 0]Uy: update_non_local_matrix_data: 0.153 [ms]
[OGL LOG][Proc: 0]Uy_matrix: call_update: 8.339 [ms]
[OGL LOG][Proc: 0]Uy_rhs: call_update: 11.197 [ms]
[OGL LOG][Preconditioner.H:121] Generate preconditioner BJ MaxBlockSize 1
[OGL LOG][Proc: 0]Uy: init_precond: 0.752 [ms]
[OGL LOG][StoppingCriterion.H:373] Creating stopping criterion with minIter 12 frequency 1
[OGL LOG][Proc: 0]Uy: generate_solver: 0.002 [ms]
[OGL LOG][Proc: 0]Uy: solve: 107.418 [ms]
[OGL LOG][Proc: 0]Uy: copy_x_back: 4.126 [ms]
[OGL LOG][lduLduBase.H:336] 
Statistics:
	Time per iteration: 8951 [mu s]
	Time per residual norm calculation: 310.000000 [mu s]
	Time per iteration and DOF: 0.473062 [ns]
	Retrieve results bandwidth 2.756000 [GByte/s]
[OGL LOG][Proc: 0]Uy: solve_multi_gpu: 133.351 [ms]
BJhipGKOBiCGStab:  Solving for Uy, Initial residual = 0.05114730943442587, Final residual = 0.004533790203648562, No Iterations 12
[OGL LOG][Proc: 0]: global_index_init: 0.543 [ms]
[OGL LOG][Proc: 0]Uz_local_coeffs: call_update: 0 [ms]
[OGL LOG][Proc: 0]Uz_non_local_coeffs: call_update: 0 [ms]
[OGL LOG][Proc: 0]Uz: update_local_matrix_data: 34.479 [ms]
[OGL LOG][Proc: 0]Uz: update_non_local_matrix_data: 0.226 [ms]
[OGL LOG][Proc: 0]Uz_matrix: call_update: 9.106999999999999 [ms]
[OGL LOG][Proc: 0]Uz_rhs: call_update: 14.137 [ms]
[OGL LOG][Preconditioner.H:121] Generate preconditioner BJ MaxBlockSize 1
[OGL LOG][Proc: 0]Uz: init_precond: 0.752 [ms]
[OGL LOG][StoppingCriterion.H:373] Creating stopping criterion with minIter 13 frequency 1
[OGL LOG][Proc: 0]Uz: generate_solver: 0.002 [ms]
[OGL LOG][Proc: 0]Uz: solve: 109.502 [ms]
[OGL LOG][Proc: 0]Uz: copy_x_back: 4.006 [ms]
[OGL LOG][lduLduBase.H:336] 
Statistics:
	Time per iteration: 9954 [mu s]
	Time per residual norm calculation: 312.000000 [mu s]
	Time per iteration and DOF: 0.526071 [ns]
	Retrieve results bandwidth 2.839000 [GByte/s]
[OGL LOG][Proc: 0]Uz: solve_multi_gpu: 139.021 [ms]
BJhipGKOBiCGStab:  Solving for Uz, Initial residual = 0.0535524421109355, Final residual = 0.004968812837654717, No Iterations 11
[INFO] MomentumPredictor: 622.361 [ms]
[INFO] MatrixAssemblyPI: 263.112 [ms]
[INFO] MatrixAssemblyPII: 130.112 [ms]
GAMG:  Solving for p, Initial residual = 0.1069373055638202, Final residual = 0.000834644027056367, No Iterations 5
[INFO] SolveP: 794.104 [ms]
time step continuity errors : sum local = 0.00806512264206834, global = -9.229599143573152e-05, cumulative = -0.0005655458761540346
[INFO] postSolveP: 69.447 [ms]
[OGL LOG][Proc: 0]: global_index_init: 0.038 [ms]
[OGL LOG][Proc: 0]nuTilda_local_coeffs: call_update: 0 [ms]
[OGL LOG][Proc: 0]nuTilda_non_local_coeffs: call_update: 0 [ms]
[OGL LOG][Proc: 0]nuTilda: update_local_matrix_data: 34.821 [ms]
[OGL LOG][Proc: 0]nuTilda: update_non_local_matrix_data: 0.189 [ms]
[OGL LOG][Proc: 0]nuTilda_matrix: call_update: 11.113 [ms]
[OGL LOG][Proc: 0]nuTilda_rhs: call_update: 6.981 [ms]
[OGL LOG][Preconditioner.H:121] Generate preconditioner BJ MaxBlockSize 1
[OGL LOG][Proc: 0]nuTilda: init_precond: 0.767 [ms]
[OGL LOG][StoppingCriterion.H:373] Creating stopping criterion with minIter 2 frequency 1
[OGL LOG][Proc: 0]nuTilda: generate_solver: 0.002 [ms]
[OGL LOG][Proc: 0]nuTilda: solve: 75.893 [ms]
[OGL LOG][Proc: 0]nuTilda: copy_x_back: 4.342000000000001 [ms]
[OGL LOG][lduLduBase.H:336] 
Statistics:
	Time per iteration: 37946 [mu s]
	Time per residual norm calculation: 328.000000 [mu s]
	Time per iteration and DOF: 2.005453 [ns]
	Retrieve results bandwidth 2.619000 [GByte/s]
[OGL LOG][Proc: 0]nuTilda: solve_multi_gpu: 100.639 [ms]
BJhipGKOBiCGStab:  Solving for nuTilda, Initial residual = 0.04174373416274949, Final residual = 0.004064661504445352, No Iterations 2
[INFO] TimeStep: 4586.604 [ms]
ExecutionTime = 86.06 s  ClockTime = 87 s

Time = 10

velocityDampingConstraint velocityDamping damped 0 (0%) of cells, with max limit 300
[INFO] MatrixAssemblyU: 1692.929 [ms]
[OGL LOG][Proc: 0]: global_index_init: 1.334 [ms]
[OGL LOG][Proc: 0]Ux_local_coeffs: call_update: 0 [ms]
[OGL LOG][Proc: 0]Ux_non_local_coeffs: call_update: 0 [ms]
[OGL LOG][Proc: 0]Ux: update_local_matrix_data: 34.074 [ms]
[OGL LOG][Proc: 0]Ux: update_non_local_matrix_data: 0.16 [ms]
[OGL LOG][Proc: 0]Ux_matrix: call_update: 9.415000000000001 [ms]
[OGL LOG][Proc: 0]Ux_rhs: call_update: 3.706 [ms]
[OGL LOG][Preconditioner.H:121] Generate preconditioner BJ MaxBlockSize 1
[OGL LOG][Proc: 0]Ux: init_precond: 0.839 [ms]
[OGL LOG][StoppingCriterion.H:373] Creating stopping criterion with minIter 15 frequency 1
[OGL LOG][Proc: 0]Ux: generate_solver: 0.003 [ms]
[OGL LOG][Proc: 0]Ux: solve: 100.582 [ms]
[OGL LOG][Proc: 0]Ux: copy_x_back: 4.079 [ms]
[OGL LOG][lduLduBase.H:336] 
Statistics:
	Time per iteration: 9143 [mu s]
	Time per residual norm calculation: 268.000000 [mu s]
	Time per iteration and DOF: 0.483209 [ns]
	Retrieve results bandwidth 2.788000 [GByte/s]
[OGL LOG][Proc: 0]Ux: solve_multi_gpu: 120.132 [ms]
BJhipGKOBiCGStab:  Solving for Ux, Initial residual = 0.04446276472000833, Final residual = 0.003973530616570138, No Iterations 11
[OGL LOG][Proc: 0]: global_index_init: 0.242 [ms]
[OGL LOG][Proc: 0]Uy_local_coeffs: call_update: 0 [ms]
[OGL LOG][Proc: 0]Uy_non_local_coeffs: call_update: 0 [ms]
[OGL LOG][Proc: 0]Uy: update_local_matrix_data: 33.861 [ms]
[OGL LOG][Proc: 0]Uy: update_non_local_matrix_data: 0.151 [ms]
[OGL LOG][Proc: 0]Uy_matrix: call_update: 8.465 [ms]
[OGL LOG][Proc: 0]Uy_rhs: call_update: 5.497 [ms]
[OGL LOG][Preconditioner.H:121] Generate preconditioner BJ MaxBlockSize 1
[OGL LOG][Proc: 0]Uy: init_precond: 0.77 [ms]
[OGL LOG][StoppingCriterion.H:373] Creating stopping criterion with minIter 15 frequency 1
[OGL LOG][Proc: 0]Uy: generate_solver: 0.002 [ms]
[OGL LOG][Proc: 0]Uy: solve: 101.838 [ms]
[OGL LOG][Proc: 0]Uy: copy_x_back: 4.243 [ms]
[OGL LOG][lduLduBase.H:336] 
Statistics:
	Time per iteration: 9258 [mu s]
	Time per residual norm calculation: 330.000000 [mu s]
	Time per iteration and DOF: 0.489287 [ns]
	Retrieve results bandwidth 2.680000 [GByte/s]
[OGL LOG][Proc: 0]Uy: solve_multi_gpu: 122.345 [ms]
BJhipGKOBiCGStab:  Solving for Uy, Initial residual = 0.06037683368581356, Final residual = 0.005919868840142999, No Iterations 11
[OGL LOG][Proc: 0]: global_index_init: 0.064 [ms]
[OGL LOG][Proc: 0]Uz_local_coeffs: call_update: 0 [ms]
[OGL LOG][Proc: 0]Uz_non_local_coeffs: call_update: 0 [ms]
[OGL LOG][Proc: 0]Uz: update_local_matrix_data: 33.91 [ms]
[OGL LOG][Proc: 0]Uz: update_non_local_matrix_data: 0.155 [ms]
[OGL LOG][Proc: 0]Uz_matrix: call_update: 14.358 [ms]
[OGL LOG][Proc: 0]Uz_rhs: call_update: 2.724 [ms]
[OGL LOG][Preconditioner.H:121] Generate preconditioner BJ MaxBlockSize 1
[OGL LOG][Proc: 0]Uz: init_precond: 0.8080000000000001 [ms]
[OGL LOG][StoppingCriterion.H:373] Creating stopping criterion with minIter 13 frequency 1
[OGL LOG][Proc: 0]Uz: generate_solver: 0.002 [ms]
[OGL LOG][Proc: 0]Uz: solve: 113.166 [ms]
[OGL LOG][Proc: 0]Uz: copy_x_back: 4.12 [ms]
[OGL LOG][lduLduBase.H:336] 
Statistics:
	Time per iteration: 9430 [mu s]
	Time per residual norm calculation: 268.000000 [mu s]
	Time per iteration and DOF: 0.498377 [ns]
	Retrieve results bandwidth 2.760000 [GByte/s]
[OGL LOG][Proc: 0]Uz: solve_multi_gpu: 136.704 [ms]
BJhipGKOBiCGStab:  Solving for Uz, Initial residual = 0.06426439656920799, Final residual = 0.006205152607372044, No Iterations 12
[INFO] MomentumPredictor: 602.236 [ms]
[INFO] MatrixAssemblyPI: 264.123 [ms]
[INFO] MatrixAssemblyPII: 129.67 [ms]
GAMG:  Solving for p, Initial residual = 0.06787633199390526, Final residual = 0.0004350177762892634, No Iterations 6
[INFO] SolveP: 936.409 [ms]
time step continuity errors : sum local = 0.004200040037534973, global = -0.0001174751613248835, cumulative = -0.0006830210374789181
[INFO] postSolveP: 69.628 [ms]
[OGL LOG][Proc: 0]: global_index_init: 0.041 [ms]
[OGL LOG][Proc: 0]nuTilda_local_coeffs: call_update: 0 [ms]
[OGL LOG][Proc: 0]nuTilda_non_local_coeffs: call_update: 0 [ms]
[OGL LOG][Proc: 0]nuTilda: update_local_matrix_data: 34.113 [ms]
[OGL LOG][Proc: 0]nuTilda: update_non_local_matrix_data: 0.196 [ms]
[OGL LOG][Proc: 0]nuTilda_matrix: call_update: 9.417 [ms]
[OGL LOG][Proc: 0]nuTilda_rhs: call_update: 3.753 [ms]
[OGL LOG][Preconditioner.H:121] Generate preconditioner BJ MaxBlockSize 1
[OGL LOG][Proc: 0]nuTilda: init_precond: 0.754 [ms]
[OGL LOG][StoppingCriterion.H:373] Creating stopping criterion with minIter 2 frequency 1
[OGL LOG][Proc: 0]nuTilda: generate_solver: 0.002 [ms]
[OGL LOG][Proc: 0]nuTilda: solve: 70.538 [ms]
[OGL LOG][Proc: 0]nuTilda: copy_x_back: 4.121 [ms]
[OGL LOG][lduLduBase.H:336] 
Statistics:
	Time per iteration: 35269 [mu s]
	Time per residual norm calculation: 270.000000 [mu s]
	Time per iteration and DOF: 1.863973 [ns]
	Retrieve results bandwidth 2.760000 [GByte/s]
[OGL LOG][Proc: 0]nuTilda: solve_multi_gpu: 90.104 [ms]
BJhipGKOBiCGStab:  Solving for nuTilda, Initial residual = 0.05282198447043934, Final residual = 0.002602432069982767, No Iterations 2
[INFO] TimeStep: 4710.395 [ms]
ExecutionTime = 92.12 s  ClockTime = 93 s

Time = 11

velocityDampingConstraint velocityDamping damped 0 (0%) of cells, with max limit 300
[INFO] MatrixAssemblyU: 1668.677 [ms]
[OGL LOG][Proc: 0]: global_index_init: 0.271 [ms]
[OGL LOG][Proc: 0]Ux_local_coeffs: call_update: 0.001 [ms]
[OGL LOG][Proc: 0]Ux_non_local_coeffs: call_update: 0 [ms]
[OGL LOG][Proc: 0]Ux: update_local_matrix_data: 33.514 [ms]
[OGL LOG][Proc: 0]Ux: update_non_local_matrix_data: 0.174 [ms]
[OGL LOG][Proc: 0]Ux_matrix: call_update: 9.534000000000001 [ms]
[OGL LOG][Proc: 0]Ux_rhs: call_update: 4.082 [ms]
[OGL LOG][Preconditioner.H:121] Generate preconditioner BJ MaxBlockSize 1
[OGL LOG][Proc: 0]Ux: init_precond: 0.8100000000000001 [ms]
[OGL LOG][StoppingCriterion.H:373] Creating stopping criterion with minIter 13 frequency 1
[OGL LOG][Proc: 0]Ux: generate_solver: 0.003 [ms]
[OGL LOG][Proc: 0]Ux: solve: 105.14 [ms]
[OGL LOG][Proc: 0]Ux: copy_x_back: 4.121 [ms]
[OGL LOG][lduLduBase.H:336] 
Statistics:
	Time per iteration: 8087 [mu s]
	Time per residual norm calculation: 328.000000 [mu s]
	Time per iteration and DOF: 0.427399 [ns]
	Retrieve results bandwidth 2.760000 [GByte/s]
[OGL LOG][Proc: 0]Ux: solve_multi_gpu: 125.187 [ms]
BJhipGKOBiCGStab:  Solving for Ux, Initial residual = 0.01963090887329893, Final residual = 0.001280905004962022, No Iterations 13
[OGL LOG][Proc: 0]: global_index_init: 0.264 [ms]
[OGL LOG][Proc: 0]Uy_local_coeffs: call_update: 0 [ms]
[OGL LOG][Proc: 0]Uy_non_local_coeffs: call_update: 0 [ms]
[OGL LOG][Proc: 0]Uy: update_local_matrix_data: 34.028 [ms]
[OGL LOG][Proc: 0]Uy: update_non_local_matrix_data: 0.163 [ms]
[OGL LOG][Proc: 0]Uy_matrix: call_update: 10.901 [ms]
[OGL LOG][Proc: 0]Uy_rhs: call_update: 6.78 [ms]
[OGL LOG][Preconditioner.H:121] Generate preconditioner BJ MaxBlockSize 1
[OGL LOG][Proc: 0]Uy: init_precond: 0.744 [ms]
[OGL LOG][StoppingCriterion.H:373] Creating stopping criterion with minIter 13 frequency 1
[OGL LOG][Proc: 0]Uy: generate_solver: 0.002 [ms]
[OGL LOG][Proc: 0]Uy: solve: 110.437 [ms]
[OGL LOG][Proc: 0]Uy: copy_x_back: 4.09 [ms]
[OGL LOG][lduLduBase.H:336] 
Statistics:
	Time per iteration: 10039 [mu s]
	Time per residual norm calculation: 268.000000 [mu s]
	Time per iteration and DOF: 0.530563 [ns]
	Retrieve results bandwidth 2.780000 [GByte/s]
[OGL LOG][Proc: 0]Uy: solve_multi_gpu: 134.455 [ms]
BJhipGKOBiCGStab:  Solving for Uy, Initial residual = 0.05205857745553475, Final residual = 0.00465137749717888, No Iterations 11
[OGL LOG][Proc: 0]: global_index_init: 1.082 [ms]
[OGL LOG][Proc: 0]Uz_local_coeffs: call_update: 0 [ms]
[OGL LOG][Proc: 0]Uz_non_local_coeffs: call_update: 0 [ms]
[OGL LOG][Proc: 0]Uz: update_local_matrix_data: 36.274 [ms]
[OGL LOG][Proc: 0]Uz: update_non_local_matrix_data: 0.154 [ms]
[OGL LOG][Proc: 0]Uz_matrix: call_update: 9.769 [ms]
[OGL LOG][Proc: 0]Uz_rhs: call_update: 5.761 [ms]
[OGL LOG][Preconditioner.H:121] Generate preconditioner BJ MaxBlockSize 1
[OGL LOG][Proc: 0]Uz: init_precond: 0.759 [ms]
[OGL LOG][StoppingCriterion.H:373] Creating stopping criterion with minIter 15 frequency 1
[OGL LOG][Proc: 0]Uz: generate_solver: 0.003 [ms]
[OGL LOG][Proc: 0]Uz: solve: 109.097 [ms]
[OGL LOG][Proc: 0]Uz: copy_x_back: 4.066 [ms]
[OGL LOG][lduLduBase.H:336] 
Statistics:
	Time per iteration: 9917 [mu s]
	Time per residual norm calculation: 309.000000 [mu s]
	Time per iteration and DOF: 0.524115 [ns]
	Retrieve results bandwidth 2.797000 [GByte/s]
[OGL LOG][Proc: 0]Uz: solve_multi_gpu: 130.949 [ms]
BJhipGKOBiCGStab:  Solving for Uz, Initial residual = 0.05487001041909216, Final residual = 0.005137324784854561, No Iterations 11
[INFO] MomentumPredictor: 616.511 [ms]
[INFO] MatrixAssemblyPI: 263.769 [ms]
[INFO] MatrixAssemblyPII: 130.053 [ms]
GAMG:  Solving for p, Initial residual = 0.06885482741034392, Final residual = 0.0004431754688845699, No Iterations 6
[INFO] SolveP: 929.8339999999999 [ms]
time step continuity errors : sum local = 0.004182457604035382, global = -5.867463802291446e-05, cumulative = -0.0007416956755018325
[INFO] postSolveP: 69.411 [ms]
[OGL LOG][Proc: 0]: global_index_init: 0.191 [ms]
[OGL LOG][Proc: 0]nuTilda_local_coeffs: call_update: 0 [ms]
[OGL LOG][Proc: 0]nuTilda_non_local_coeffs: call_update: 0 [ms]
[OGL LOG][Proc: 0]nuTilda: update_local_matrix_data: 34.481 [ms]
[OGL LOG][Proc: 0]nuTilda: update_non_local_matrix_data: 0.148 [ms]
[OGL LOG][Proc: 0]nuTilda_matrix: call_update: 8.950000000000001 [ms]
[OGL LOG][Proc: 0]nuTilda_rhs: call_update: 9.966000000000001 [ms]
[OGL LOG][Preconditioner.H:121] Generate preconditioner BJ MaxBlockSize 1
[OGL LOG][Proc: 0]nuTilda: init_precond: 0.75 [ms]
[OGL LOG][StoppingCriterion.H:373] Creating stopping criterion with minIter 3 frequency 1
[OGL LOG][Proc: 0]nuTilda: generate_solver: 0.002 [ms]
[OGL LOG][Proc: 0]nuTilda: solve: 79.798 [ms]
[OGL LOG][Proc: 0]nuTilda: copy_x_back: 4.343 [ms]
[OGL LOG][lduLduBase.H:336] 
Statistics:
	Time per iteration: 39899 [mu s]
	Time per residual norm calculation: 270.000000 [mu s]
	Time per iteration and DOF: 2.108670 [ns]
	Retrieve results bandwidth 2.618000 [GByte/s]
[OGL LOG][Proc: 0]nuTilda: solve_multi_gpu: 105.328 [ms]
BJhipGKOBiCGStab:  Solving for nuTilda, Initial residual = 0.03740239020929346, Final residual = 0.001948441180866812, No Iterations 2
[INFO] TimeStep: 4709.618 [ms]
ExecutionTime = 98.15000000000001 s  ClockTime = 99 s

Time = 12

velocityDampingConstraint velocityDamping damped 0 (0%) of cells, with max limit 300
[INFO] MatrixAssemblyU: 1670.7 [ms]
[OGL LOG][Proc: 0]: global_index_init: 0.288 [ms]
[OGL LOG][Proc: 0]Ux_local_coeffs: call_update: 0 [ms]
[OGL LOG][Proc: 0]Ux_non_local_coeffs: call_update: 0 [ms]
[OGL LOG][Proc: 0]Ux: update_local_matrix_data: 34.913 [ms]
[OGL LOG][Proc: 0]Ux: update_non_local_matrix_data: 0.148 [ms]
[OGL LOG][Proc: 0]Ux_matrix: call_update: 10.179 [ms]
[OGL LOG][Proc: 0]Ux_rhs: call_update: 7.739 [ms]
[OGL LOG][Preconditioner.H:121] Generate preconditioner BJ MaxBlockSize 1
[OGL LOG][Proc: 0]Ux: init_precond: 0.759 [ms]
[OGL LOG][StoppingCriterion.H:373] Creating stopping criterion with minIter 15 frequency 1
[OGL LOG][Proc: 0]Ux: generate_solver: 0.002 [ms]
[OGL LOG][Proc: 0]Ux: solve: 102.667 [ms]
[OGL LOG][Proc: 0]Ux: copy_x_back: 4.143 [ms]
[OGL LOG][lduLduBase.H:336] 
Statistics:
	Time per iteration: 10266 [mu s]
	Time per residual norm calculation: 270.000000 [mu s]
	Time per iteration and DOF: 0.542560 [ns]
	Retrieve results bandwidth 2.745000 [GByte/s]
[OGL LOG][Proc: 0]Ux: solve_multi_gpu: 126.992 [ms]
BJhipGKOBiCGStab:  Solving for Ux, Initial residual = 0.02202868973704791, Final residual = 0.002132144651648831, No Iterations 10
[OGL LOG][Proc: 0]: global_index_init: 0.6900000000000001 [ms]
[OGL LOG][Proc: 0]Uy_local_coeffs: call_update: 0 [ms]
[OGL LOG][Proc: 0]Uy_non_local_coeffs: call_update: 0 [ms]
[OGL LOG][Proc: 0]Uy: update_local_matrix_data: 34.662 [ms]
[OGL LOG][Proc: 0]Uy: update_non_local_matrix_data: 0.152 [ms]
[OGL LOG][Proc: 0]Uy_matrix: call_update: 8.776 [ms]
[OGL LOG][Proc: 0]Uy_rhs: call_update: 10.625 [ms]
[OGL LOG][Preconditioner.H:121] Generate preconditioner BJ MaxBlockSize 1
[OGL LOG][Proc: 0]Uy: init_precond: 0.744 [ms]
[OGL LOG][StoppingCriterion.H:373] Creating stopping criterion with minIter 13 frequency 1
[OGL LOG][Proc: 0]Uy: generate_solver: 0.002 [ms]
[OGL LOG][Proc: 0]Uy: solve: 112.762 [ms]
[OGL LOG][Proc: 0]Uy: copy_x_back: 4.146 [ms]
[OGL LOG][lduLduBase.H:336] 
Statistics:
	Time per iteration: 9396 [mu s]
	Time per residual norm calculation: 350.000000 [mu s]
	Time per iteration and DOF: 0.496580 [ns]
	Retrieve results bandwidth 2.743000 [GByte/s]
[OGL LOG][Proc: 0]Uy: solve_multi_gpu: 138.575 [ms]
BJhipGKOBiCGStab:  Solving for Uy, Initial residual = 0.0432955624977743, Final residual = 0.00343949716316388, No Iterations 12
[OGL LOG][Proc: 0]: global_index_init: 0.98 [ms]
[OGL LOG][Proc: 0]Uz_local_coeffs: call_update: 0 [ms]
[OGL LOG][Proc: 0]Uz_non_local_coeffs: call_update: 0 [ms]
[OGL LOG][Proc: 0]Uz: update_local_matrix_data: 34.633 [ms]
[OGL LOG][Proc: 0]Uz: update_non_local_matrix_data: 0.184 [ms]
[OGL LOG][Proc: 0]Uz_matrix: call_update: 9.32 [ms]
[OGL LOG][Proc: 0]Uz_rhs: call_update: 8.960000000000001 [ms]
[OGL LOG][Preconditioner.H:121] Generate preconditioner BJ MaxBlockSize 1
[OGL LOG][Proc: 0]Uz: init_precond: 0.768 [ms]
[OGL LOG][StoppingCriterion.H:373] Creating stopping criterion with minIter 13 frequency 1
[OGL LOG][Proc: 0]Uz: generate_solver: 0.002 [ms]
[OGL LOG][Proc: 0]Uz: solve: 112.051 [ms]
[OGL LOG][Proc: 0]Uz: copy_x_back: 4.062 [ms]
[OGL LOG][lduLduBase.H:336] 
Statistics:
	Time per iteration: 10186 [mu s]
	Time per residual norm calculation: 307.000000 [mu s]
	Time per iteration and DOF: 0.538332 [ns]
	Retrieve results bandwidth 2.800000 [GByte/s]
[OGL LOG][Proc: 0]Uz: solve_multi_gpu: 136.66 [ms]
BJhipGKOBiCGStab:  Solving for Uz, Initial residual = 0.04487442040005231, Final residual = 0.003959273570306567, No Iterations 11
[INFO] MomentumPredictor: 628.338 [ms]
[INFO] MatrixAssemblyPI: 263.117 [ms]
[INFO] MatrixAssemblyPII: 130.309 [ms]
GAMG:  Solving for p, Initial residual = 0.05914435748795144, Final residual = 0.0005785883152607734, No Iterations 5
[INFO] SolveP: 792.778 [ms]
time step continuity errors : sum local = 0.00528457874388791, global = 7.250227521040468e-05, cumulative = -0.0006691934002914278
[INFO] postSolveP: 69.468 [ms]
[OGL LOG][Proc: 0]: global_index_init: 0.04 [ms]
[OGL LOG][Proc: 0]nuTilda_local_coeffs: call_update: 0 [ms]
[OGL LOG][Proc: 0]nuTilda_non_local_coeffs: call_update: 0 [ms]
[OGL LOG][Proc: 0]nuTilda: update_local_matrix_data: 34.978 [ms]
[OGL LOG][Proc: 0]nuTilda: update_non_local_matrix_data: 0.161 [ms]
[OGL LOG][Proc: 0]nuTilda_matrix: call_update: 8.802 [ms]
[OGL LOG][Proc: 0]nuTilda_rhs: call_update: 8.545999999999999 [ms]
[OGL LOG][Preconditioner.H:121] Generate preconditioner BJ MaxBlockSize 1
[OGL LOG][Proc: 0]nuTilda: init_precond: 0.78 [ms]
[OGL LOG][StoppingCriterion.H:373] Creating stopping criterion with minIter 3 frequency 1
[OGL LOG][Proc: 0]nuTilda: generate_solver: 0.002 [ms]
[OGL LOG][Proc: 0]nuTilda: solve: 77.491 [ms]
[OGL LOG][Proc: 0]nuTilda: copy_x_back: 4.251 [ms]
[OGL LOG][lduLduBase.H:336] 
Statistics:
	Time per iteration: 38745 [mu s]
	Time per residual norm calculation: 368.000000 [mu s]
	Time per iteration and DOF: 2.047681 [ns]
[...]
[OGL LOG][Proc: 0]Uy_matrix: call_update: 9.508000000000001 [ms]
[OGL LOG][Proc: 0]Uy_rhs: call_update: 3.276 [ms]
[OGL LOG][Preconditioner.H:121] Generate preconditioner BJ MaxBlockSize 1
[OGL LOG][Proc: 0]Uy: init_precond: 0.765 [ms]
[OGL LOG][StoppingCriterion.H:373] Creating stopping criterion with minIter 15 frequency 1
[OGL LOG][Proc: 0]Uy: generate_solver: 0.003 [ms]
[OGL LOG][Proc: 0]Uy: solve: 115.565 [ms]
[OGL LOG][Proc: 0]Uy: copy_x_back: 4.218 [ms]
[OGL LOG][lduLduBase.H:336] 
Statistics:
	Time per iteration: 7222 [mu s]
	Time per residual norm calculation: 268.000000 [mu s]
	Time per iteration and DOF: 0.381684 [ns]
	Retrieve results bandwidth 2.696000 [GByte/s]
[OGL LOG][Proc: 0]Uy: solve_multi_gpu: 134.931 [ms]
BJhipGKOBiCGStab:  Solving for Uy, Initial residual = 0.06681987232510538, Final residual = 0.006484098602423345, No Iterations 16
[OGL LOG][Proc: 0]: global_index_init: 0.1 [ms]
[OGL LOG][Proc: 0]Uz_local_coeffs: call_update: 0 [ms]
[OGL LOG][Proc: 0]Uz_non_local_coeffs: call_update: 0 [ms]
[OGL LOG][Proc: 0]Uz: update_local_matrix_data: 35.401 [ms]
[OGL LOG][Proc: 0]Uz: update_non_local_matrix_data: 0.153 [ms]
[OGL LOG][Proc: 0]Uz_matrix: call_update: 11.111 [ms]
[OGL LOG][Proc: 0]Uz_rhs: call_update: 5.951000000000001 [ms]
[OGL LOG][Preconditioner.H:121] Generate preconditioner BJ MaxBlockSize 1
[OGL LOG][Proc: 0]Uz: init_precond: 0.776 [ms]
[OGL LOG][StoppingCriterion.H:373] Creating stopping criterion with minIter 13 frequency 1
[OGL LOG][Proc: 0]Uz: generate_solver: 0.003 [ms]
[OGL LOG][Proc: 0]Uz: solve: 100.484 [ms]
[OGL LOG][Proc: 0]Uz: copy_x_back: 4.255 [ms]
[OGL LOG][lduLduBase.H:336] 
Statistics:
	Time per iteration: 9134 [mu s]
	Time per residual norm calculation: 311.000000 [mu s]
	Time per iteration and DOF: 0.482734 [ns]
	Retrieve results bandwidth 2.673000 [GByte/s]
[OGL LOG][Proc: 0]Uz: solve_multi_gpu: 124.352 [ms]
BJhipGKOBiCGStab:  Solving for Uz, Initial residual = 0.06869713204750415, Final residual = 0.006459744583494403, No Iterations 11
[INFO] MomentumPredictor: 612.348 [ms]
[INFO] MatrixAssemblyPI: 261.837 [ms]
[INFO] MatrixAssemblyPII: 129.937 [ms]
GAMG:  Solving for p, Initial residual = 0.05416183854438752, Final residual = 0.0004883277188387789, No Iterations 5
[INFO] SolveP: 788.585 [ms]
time step continuity errors : sum local = 0.004846842951967314, global = 3.787544004136809e-05, cumulative = 0.00044866851529776
[INFO] postSolveP: 70.26600000000001 [ms]
[OGL LOG][Proc: 0]: global_index_init: 0.859 [ms]
[OGL LOG][Proc: 0]nuTilda_local_coeffs: call_update: 0 [ms]
[OGL LOG][Proc: 0]nuTilda_non_local_coeffs: call_update: 0 [ms]
[OGL LOG][Proc: 0]nuTilda: update_local_matrix_data: 36.073 [ms]
[OGL LOG][Proc: 0]nuTilda: update_non_local_matrix_data: 0.27 [ms]
[OGL LOG][Proc: 0]nuTilda_matrix: call_update: 10.39 [ms]
[OGL LOG][Proc: 0]nuTilda_rhs: call_update: 1.37 [ms]
[OGL LOG][Preconditioner.H:121] Generate preconditioner BJ MaxBlockSize 1
[OGL LOG][Proc: 0]nuTilda: init_precond: 0.774 [ms]
[OGL LOG][StoppingCriterion.H:373] Creating stopping criterion with minIter 2 frequency 1
[OGL LOG][Proc: 0]nuTilda: generate_solver: 0.002 [ms]
[OGL LOG][Proc: 0]nuTilda: solve: 84.44 [ms]
[OGL LOG][Proc: 0]nuTilda: copy_x_back: 4.4 [ms]
[OGL LOG][lduLduBase.H:336] 
Statistics:
	Time per iteration: 42220 [mu s]
	Time per residual norm calculation: 276.000000 [mu s]
	Time per iteration and DOF: 2.231335 [ns]
	Retrieve results bandwidth 2.585000 [GByte/s]
[OGL LOG][Proc: 0]nuTilda: solve_multi_gpu: 103.206 [ms]
BJhipGKOBiCGStab:  Solving for nuTilda, Initial residual = 0.01167708045193169, Final residual = 0.0007823114266438563, No Iterations 2
bounding nuTilda, min: -0.0002355656046430999 max: 0.006857940633787999 average: 0.0003271272065063353
[INFO] TimeStep: 4526.442 [ms]
ExecutionTime = 307.24 s  ClockTime = 310 s

Time = 48

velocityDampingConstraint velocityDamping damped 0 (0%) of cells, with max limit 300
[INFO] MatrixAssemblyU: 1604.132 [ms]
[OGL LOG][Proc: 0]: global_index_init: 0.271 [ms]
[OGL LOG][Proc: 0]Ux_local_coeffs: call_update: 0 [ms]
[OGL LOG][Proc: 0]Ux_non_local_coeffs: call_update: 0 [ms]
[OGL LOG][Proc: 0]Ux: update_local_matrix_data: 37.096 [ms]
[OGL LOG][Proc: 0]Ux: update_non_local_matrix_data: 0.156 [ms]
[OGL LOG][Proc: 0]Ux_matrix: call_update: 11.591 [ms]
[OGL LOG][Proc: 0]Ux_rhs: call_update: 1.33 [ms]
[OGL LOG][Preconditioner.H:121] Generate preconditioner BJ MaxBlockSize 1
[OGL LOG][Proc: 0]Ux: init_precond: 0.844 [ms]
[OGL LOG][StoppingCriterion.H:373] Creating stopping criterion with minIter 12 frequency 1
[OGL LOG][Proc: 0]Ux: generate_solver: 0.002 [ms]
[OGL LOG][Proc: 0]Ux: solve: 113.267 [ms]
[OGL LOG][Proc: 0]Ux: copy_x_back: 4.055 [ms]
[OGL LOG][lduLduBase.H:336] 
Statistics:
	Time per iteration: 8090 [mu s]
	Time per residual norm calculation: 365.000000 [mu s]
	Time per iteration and DOF: 0.427558 [ns]
	Retrieve results bandwidth 2.804000 [GByte/s]
[OGL LOG][Proc: 0]Ux: solve_multi_gpu: 132.725 [ms]
BJhipGKOBiCGStab:  Solving for Ux, Initial residual = 0.01147495443426871, Final residual = 0.0005607203211691226, No Iterations 14
[OGL LOG][Proc: 0]: global_index_init: 0.042 [ms]
[OGL LOG][Proc: 0]Uy_local_coeffs: call_update: 0 [ms]
[OGL LOG][Proc: 0]Uy_non_local_coeffs: call_update: 0 [ms]
[OGL LOG][Proc: 0]Uy: update_local_matrix_data: 38.813 [ms]
[OGL LOG][Proc: 0]Uy: update_non_local_matrix_data: 0.188 [ms]
[OGL LOG][Proc: 0]Uy_matrix: call_update: 9.098000000000001 [ms]
[OGL LOG][Proc: 0]Uy_rhs: call_update: 1.289 [ms]
[OGL LOG][Preconditioner.H:121] Generate preconditioner BJ MaxBlockSize 1
[OGL LOG][Proc: 0]Uy: init_precond: 0.806 [ms]
[OGL LOG][StoppingCriterion.H:373] Creating stopping criterion with minIter 19 frequency 1
[OGL LOG][Proc: 0]Uy: generate_solver: 0.002 [ms]
[OGL LOG][Proc: 0]Uy: solve: 110.144 [ms]
[OGL LOG][Proc: 0]Uy: copy_x_back: 4.164 [ms]
[OGL LOG][lduLduBase.H:336] 
Statistics:
	Time per iteration: 7342 [mu s]
	Time per residual norm calculation: 347.000000 [mu s]
	Time per iteration and DOF: 0.388026 [ns]
	Retrieve results bandwidth 2.731000 [GByte/s]
[OGL LOG][Proc: 0]Uy: solve_multi_gpu: 127.09 [ms]
BJhipGKOBiCGStab:  Solving for Uy, Initial residual = 0.06547196984775394, Final residual = 0.004028101027823236, No Iterations 15
[OGL LOG][Proc: 0]: global_index_init: 0.279 [ms]
[OGL LOG][Proc: 0]Uz_local_coeffs: call_update: 0 [ms]
[OGL LOG][Proc: 0]Uz_non_local_coeffs: call_update: 0 [ms]
[OGL LOG][Proc: 0]Uz: update_local_matrix_data: 36.968 [ms]
[OGL LOG][Proc: 0]Uz: update_non_local_matrix_data: 0.153 [ms]
[OGL LOG][Proc: 0]Uz_matrix: call_update: 13.122 [ms]
[OGL LOG][Proc: 0]Uz_rhs: call_update: 1.285 [ms]
[OGL LOG][Preconditioner.H:121] Generate preconditioner BJ MaxBlockSize 1
[OGL LOG][Proc: 0]Uz: init_precond: 0.78 [ms]
[OGL LOG][StoppingCriterion.H:373] Creating stopping criterion with minIter 13 frequency 1
[OGL LOG][Proc: 0]Uz: generate_solver: 0.002 [ms]
[OGL LOG][Proc: 0]Uz: solve: 113.734 [ms]
[OGL LOG][Proc: 0]Uz: copy_x_back: 4.118 [ms]
[OGL LOG][lduLduBase.H:336] 
Statistics:
	Time per iteration: 7582 [mu s]
	Time per residual norm calculation: 366.000000 [mu s]
	Time per iteration and DOF: 0.400710 [ns]
	Retrieve results bandwidth 2.762000 [GByte/s]
[OGL LOG][Proc: 0]Uz: solve_multi_gpu: 134.6 [ms]
BJhipGKOBiCGStab:  Solving for Uz, Initial residual = 0.06928033433525736, Final residual = 0.005113655342783976, No Iterations 15
[INFO] MomentumPredictor: 627.356 [ms]
[INFO] MatrixAssemblyPI: 263.112 [ms]
[INFO] MatrixAssemblyPII: 129.688 [ms]
GAMG:  Solving for p, Initial residual = 0.05458355718805083, Final residual = 0.0004503981154779772, No Iterations 5
[INFO] SolveP: 786.579 [ms]
time step continuity errors : sum local = 0.004422968341802433, global = 4.541551336211465e-05, cumulative = 0.0004940840286598746
[INFO] postSolveP: 69.95699999999999 [ms]
[OGL LOG][Proc: 0]: global_index_init: 0.04 [ms]
[OGL LOG][Proc: 0]nuTilda_local_coeffs: call_update: 0 [ms]
[OGL LOG][Proc: 0]nuTilda_non_local_coeffs: call_update: 0 [ms]
[OGL LOG][Proc: 0]nuTilda: update_local_matrix_data: 36.837 [ms]
[OGL LOG][Proc: 0]nuTilda: update_non_local_matrix_data: 0.219 [ms]
[OGL LOG][Proc: 0]nuTilda_matrix: call_update: 12.125 [ms]
[OGL LOG][Proc: 0]nuTilda_rhs: call_update: 1.529 [ms]
[OGL LOG][Preconditioner.H:121] Generate preconditioner BJ MaxBlockSize 1
[OGL LOG][Proc: 0]nuTilda: init_precond: 0.765 [ms]
[OGL LOG][StoppingCriterion.H:373] Creating stopping criterion with minIter 3 frequency 1
[OGL LOG][Proc: 0]nuTilda: generate_solver: 0.002 [ms]
[OGL LOG][Proc: 0]nuTilda: solve: 75.429 [ms]
[OGL LOG][Proc: 0]nuTilda: copy_x_back: 4.241 [ms]
[OGL LOG][lduLduBase.H:336] 
Statistics:
	Time per iteration: 37714 [mu s]
	Time per residual norm calculation: 331.000000 [mu s]
	Time per iteration and DOF: 1.993192 [ns]
	Retrieve results bandwidth 2.681000 [GByte/s]
[OGL LOG][Proc: 0]nuTilda: solve_multi_gpu: 95.729 [ms]
BJhipGKOBiCGStab:  Solving for nuTilda, Initial residual = 0.01626535222448485, Final residual = 0.001447293386906244, No Iterations 2
bounding nuTilda, min: -0.001055737378680337 max: 0.006900702124913788 average: 0.0003335119972579466
[INFO] TimeStep: 4534.974 [ms]
ExecutionTime = 312.99 s  ClockTime = 316 s

Time = 49

velocityDampingConstraint velocityDamping damped 0 (0%) of cells, with max limit 300
[INFO] MatrixAssemblyU: 1600.329 [ms]
[OGL LOG][Proc: 0]: global_index_init: 0.061 [ms]
[OGL LOG][Proc: 0]Ux_local_coeffs: call_update: 0 [ms]
[OGL LOG][Proc: 0]Ux_non_local_coeffs: call_update: 0 [ms]
[OGL LOG][Proc: 0]Ux: update_local_matrix_data: 36.422 [ms]
[OGL LOG][Proc: 0]Ux: update_non_local_matrix_data: 0.185 [ms]
[OGL LOG][Proc: 0]Ux_matrix: call_update: 12.803 [ms]
[OGL LOG][Proc: 0]Ux_rhs: call_update: 1.415 [ms]
[OGL LOG][Preconditioner.H:121] Generate preconditioner BJ MaxBlockSize 1
[OGL LOG][Proc: 0]Ux: init_precond: 0.752 [ms]
[OGL LOG][StoppingCriterion.H:373] Creating stopping criterion with minIter 16 frequency 1
[OGL LOG][Proc: 0]Ux: generate_solver: 0.002 [ms]
[OGL LOG][Proc: 0]Ux: solve: 97.521 [ms]
[OGL LOG][Proc: 0]Ux: copy_x_back: 4.048 [ms]
[OGL LOG][lduLduBase.H:336] 
Statistics:
	Time per iteration: 8865 [mu s]
	Time per residual norm calculation: 406.000000 [mu s]
	Time per iteration and DOF: 0.468517 [ns]
	Retrieve results bandwidth 2.809000 [GByte/s]
[OGL LOG][Proc: 0]Ux: solve_multi_gpu: 118.148 [ms]
BJhipGKOBiCGStab:  Solving for Ux, Initial residual = 0.01153418484499184, Final residual = 0.001003476793858413, No Iterations 11
[OGL LOG][Proc: 0]: global_index_init: 0.031 [ms]
[OGL LOG][Proc: 0]Uy_local_coeffs: call_update: 0 [ms]
[OGL LOG][Proc: 0]Uy_non_local_coeffs: call_update: 0 [ms]
[OGL LOG][Proc: 0]Uy: update_local_matrix_data: 35.687 [ms]
[OGL LOG][Proc: 0]Uy: update_non_local_matrix_data: 0.151 [ms]
[OGL LOG][Proc: 0]Uy_matrix: call_update: 9.561 [ms]
[OGL LOG][Proc: 0]Uy_rhs: call_update: 2.802 [ms]
[OGL LOG][Preconditioner.H:121] Generate preconditioner BJ MaxBlockSize 1
[OGL LOG][Proc: 0]Uy: init_precond: 0.755 [ms]
[OGL LOG][StoppingCriterion.H:373] Creating stopping criterion with minIter 18 frequency 1
[OGL LOG][Proc: 0]Uy: generate_solver: 0.002 [ms]
[OGL LOG][Proc: 0]Uy: solve: 114.028 [ms]
[OGL LOG][Proc: 0]Uy: copy_x_back: 4.121 [ms]
[OGL LOG][lduLduBase.H:336] 
Statistics:
	Time per iteration: 9502 [mu s]
	Time per residual norm calculation: 310.000000 [mu s]
	Time per iteration and DOF: 0.502183 [ns]
	Retrieve results bandwidth 2.760000 [GByte/s]
[OGL LOG][Proc: 0]Uy: solve_multi_gpu: 132.838 [ms]
BJhipGKOBiCGStab:  Solving for Uy, Initial residual = 0.06783848441277185, Final residual = 0.006223042252402538, No Iterations 12
[OGL LOG][Proc: 0]: global_index_init: 0.2 [ms]
[OGL LOG][Proc: 0]Uz_local_coeffs: call_update: 0 [ms]
[OGL LOG][Proc: 0]Uz_non_local_coeffs: call_update: 0 [ms]
[OGL LOG][Proc: 0]Uz: update_local_matrix_data: 34.509 [ms]
[OGL LOG][Proc: 0]Uz: update_non_local_matrix_data: 0.21 [ms]
[OGL LOG][Proc: 0]Uz_matrix: call_update: 11.838 [ms]
[OGL LOG][Proc: 0]Uz_rhs: call_update: 1.405 [ms]
[OGL LOG][Preconditioner.H:121] Generate preconditioner BJ MaxBlockSize 1
[OGL LOG][Proc: 0]Uz: init_precond: 0.736 [ms]
[OGL LOG][StoppingCriterion.H:373] Creating stopping criterion with minIter 18 frequency 1
[OGL LOG][Proc: 0]Uz: generate_solver: 0.002 [ms]
[OGL LOG][Proc: 0]Uz: solve: 107.599 [ms]
[OGL LOG][Proc: 0]Uz: copy_x_back: 4.105 [ms]
[OGL LOG][lduLduBase.H:336] 
Statistics:
	Time per iteration: 9781 [mu s]
	Time per residual norm calculation: 268.000000 [mu s]
	Time per iteration and DOF: 0.516928 [ns]
	Retrieve results bandwidth 2.770000 [GByte/s]
[OGL LOG][Proc: 0]Uz: solve_multi_gpu: 127.317 [ms]
BJhipGKOBiCGStab:  Solving for Uz, Initial residual = 0.06781410415396054, Final residual = 0.006607311982599794, No Iterations 11
[INFO] MomentumPredictor: 604.866 [ms]
[INFO] MatrixAssemblyPI: 264.237 [ms]
[INFO] MatrixAssemblyPII: 129.936 [ms]
GAMG:  Solving for p, Initial residual = 0.05308384203752502, Final residual = 0.0004557204151184569, No Iterations 5
[INFO] SolveP: 793.739 [ms]
time step continuity errors : sum local = 0.004437358996939787, global = 8.851444922258038e-06, cumulative = 0.0005029354735821326
[INFO] postSolveP: 70.669 [ms]
[OGL LOG][Proc: 0]: global_index_init: 0.196 [ms]
[OGL LOG][Proc: 0]nuTilda_local_coeffs: call_update: 0 [ms]
[OGL LOG][Proc: 0]nuTilda_non_local_coeffs: call_update: 0 [ms]
[OGL LOG][Proc: 0]nuTilda: update_local_matrix_data: 37.811 [ms]
[OGL LOG][Proc: 0]nuTilda: update_non_local_matrix_data: 0.174 [ms]
[OGL LOG][Proc: 0]nuTilda_matrix: call_update: 11.533 [ms]
[OGL LOG][Proc: 0]nuTilda_rhs: call_update: 1.375 [ms]
[OGL LOG][Preconditioner.H:121] Generate preconditioner BJ MaxBlockSize 1
[OGL LOG][Proc: 0]nuTilda: init_precond: 0.79 [ms]
[OGL LOG][StoppingCriterion.H:373] Creating stopping criterion with minIter 2 frequency 1
[OGL LOG][Proc: 0]nuTilda: generate_solver: 0.003 [ms]
[OGL LOG][Proc: 0]nuTilda: solve: 79.193 [ms]
[OGL LOG][Proc: 0]nuTilda: copy_x_back: 4.484 [ms]
[OGL LOG][lduLduBase.H:336] 
Statistics:
	Time per iteration: 39596 [mu s]
	Time per residual norm calculation: 310.000000 [mu s]
	Time per iteration and DOF: 2.092656 [ns]
	Retrieve results bandwidth 2.536000 [GByte/s]
[OGL LOG][Proc: 0]nuTilda: solve_multi_gpu: 102.603 [ms]
BJhipGKOBiCGStab:  Solving for nuTilda, Initial residual = 0.01121486752747481, Final residual = 0.0007565638095931737, No Iterations 2
bounding nuTilda, min: -0.0002498616175229898 max: 0.006957603707156857 average: 0.0003430951289831929
[INFO] TimeStep: 4524.952 [ms]
ExecutionTime = 318.72 s  ClockTime = 322 s

Time = 50

velocityDampingConstraint velocityDamping damped 0 (0%) of cells, with max limit 300
[INFO] MatrixAssemblyU: 1598.374 [ms]
[OGL LOG][Proc: 0]: global_index_init: 0.05 [ms]
[OGL LOG][Proc: 0]Ux_local_coeffs: call_update: 0 [ms]
[OGL LOG][Proc: 0]Ux_non_local_coeffs: call_update: 0 [ms]
[OGL LOG][Proc: 0]Ux: update_local_matrix_data: 37.525 [ms]
[OGL LOG][Proc: 0]Ux: update_non_local_matrix_data: 0.183 [ms]
[OGL LOG][Proc: 0]Ux_matrix: call_update: 10.383 [ms]
[OGL LOG][Proc: 0]Ux_rhs: call_update: 1.225 [ms]
[OGL LOG][Preconditioner.H:121] Generate preconditioner BJ MaxBlockSize 1
[OGL LOG][Proc: 0]Ux: init_precond: 0.782 [ms]
[OGL LOG][StoppingCriterion.H:373] Creating stopping criterion with minIter 13 frequency 1
[OGL LOG][Proc: 0]Ux: generate_solver: 0.003 [ms]
[OGL LOG][Proc: 0]Ux: solve: 96.319 [ms]
[OGL LOG][Proc: 0]Ux: copy_x_back: 4.288 [ms]
[OGL LOG][lduLduBase.H:336] 
Statistics:
	Time per iteration: 9631 [mu s]
	Time per residual norm calculation: 274.000000 [mu s]
	Time per iteration and DOF: 0.509000 [ns]
	Retrieve results bandwidth 2.652000 [GByte/s]
[OGL LOG][Proc: 0]Ux: solve_multi_gpu: 114.572 [ms]
BJhipGKOBiCGStab:  Solving for Ux, Initial residual = 0.01137023789707805, Final residual = 0.001126935843034041, No Iterations 10
[OGL LOG][Proc: 0]: global_index_init: 0.052 [ms]
[OGL LOG][Proc: 0]Uy_local_coeffs: call_update: 0 [ms]
[OGL LOG][Proc: 0]Uy_non_local_coeffs: call_update: 0 [ms]
[OGL LOG][Proc: 0]Uy: update_local_matrix_data: 37.416 [ms]
[OGL LOG][Proc: 0]Uy: update_non_local_matrix_data: 0.226 [ms]
[OGL LOG][Proc: 0]Uy_matrix: call_update: 9.285 [ms]
[OGL LOG][Proc: 0]Uy_rhs: call_update: 1.367 [ms]
[OGL LOG][Preconditioner.H:121] Generate preconditioner BJ MaxBlockSize 1
[OGL LOG][Proc: 0]Uy: init_precond: 0.8320000000000001 [ms]
[OGL LOG][StoppingCriterion.H:373] Creating stopping criterion with minIter 15 frequency 1
[OGL LOG][Proc: 0]Uy: generate_solver: 0.009000000000000001 [ms]
[OGL LOG][Proc: 0]Uy: solve: 95.754 [ms]
[OGL LOG][Proc: 0]Uy: copy_x_back: 4.121 [ms]
[OGL LOG][lduLduBase.H:336] 
Statistics:
	Time per iteration: 9575 [mu s]
	Time per residual norm calculation: 312.000000 [mu s]
	Time per iteration and DOF: 0.506041 [ns]
	Retrieve results bandwidth 2.760000 [GByte/s]
[OGL LOG][Proc: 0]Uy: solve_multi_gpu: 112.98 [ms]
BJhipGKOBiCGStab:  Solving for Uy, Initial residual = 0.06492277799593603, Final residual = 0.006091833616682249, No Iterations 10
[OGL LOG][Proc: 0]: global_index_init: 0.197 [ms]
[OGL LOG][Proc: 0]Uz_local_coeffs: call_update: 0 [ms]
[OGL LOG][Proc: 0]Uz_non_local_coeffs: call_update: 0 [ms]
[OGL LOG][Proc: 0]Uz: update_local_matrix_data: 36.898 [ms]
[OGL LOG][Proc: 0]Uz: update_non_local_matrix_data: 0.154 [ms]
[OGL LOG][Proc: 0]Uz_matrix: call_update: 11.171 [ms]
[OGL LOG][Proc: 0]Uz_rhs: call_update: 1.403 [ms]
[OGL LOG][Preconditioner.H:121] Generate preconditioner BJ MaxBlockSize 1
[OGL LOG][Proc: 0]Uz: init_precond: 0.778 [ms]
[OGL LOG][StoppingCriterion.H:373] Creating stopping criterion with minIter 13 frequency 1
[OGL LOG][Proc: 0]Uz: generate_solver: 0.002 [ms]
[OGL LOG][Proc: 0]Uz: solve: 116.968 [ms]
[OGL LOG][Proc: 0]Uz: copy_x_back: 4.328 [ms]
[OGL LOG][lduLduBase.H:336] 
Statistics:
	Time per iteration: 8997 [mu s]
	Time per residual norm calculation: 267.000000 [mu s]
	Time per iteration and DOF: 0.475493 [ns]
	Retrieve results bandwidth 2.628000 [GByte/s]
[OGL LOG][Proc: 0]Uz: solve_multi_gpu: 136.247 [ms]
BJhipGKOBiCGStab:  Solving for Uz, Initial residual = 0.06627139246467317, Final residual = 0.006146306994611423, No Iterations 13
[INFO] MomentumPredictor: 596.591 [ms]
[INFO] MatrixAssemblyPI: 263.321 [ms]
[INFO] MatrixAssemblyPII: 130.02 [ms]
GAMG:  Solving for p, Initial residual = 0.05165480078494278, Final residual = 0.0004380248181078134, No Iterations 5
[INFO] SolveP: 787.813 [ms]
time step continuity errors : sum local = 0.004220946066748061, global = -1.132794790389935e-05, cumulative = 0.0004916075256782333
[INFO] postSolveP: 69.714 [ms]
[OGL LOG][Proc: 0]: global_index_init: 0.332 [ms]
[OGL LOG][Proc: 0]nuTilda_local_coeffs: call_update: 0 [ms]
[OGL LOG][Proc: 0]nuTilda_non_local_coeffs: call_update: 0 [ms]
[OGL LOG][Proc: 0]nuTilda: update_local_matrix_data: 36.355 [ms]
[OGL LOG][Proc: 0]nuTilda: update_non_local_matrix_data: 0.172 [ms]
[OGL LOG][Proc: 0]nuTilda_matrix: call_update: 13.807 [ms]
[OGL LOG][Proc: 0]nuTilda_rhs: call_update: 1.348 [ms]
[OGL LOG][Preconditioner.H:121] Generate preconditioner BJ MaxBlockSize 1
[OGL LOG][Proc: 0]nuTilda: init_precond: 0.747 [ms]
[OGL LOG][StoppingCriterion.H:373] Creating stopping criterion with minIter 3 frequency 1
[OGL LOG][Proc: 0]nuTilda: generate_solver: 0.002 [ms]
[OGL LOG][Proc: 0]nuTilda: solve: 74.657 [ms]
[OGL LOG][Proc: 0]nuTilda: copy_x_back: 4.251 [ms]
[OGL LOG][lduLduBase.H:336] 
Statistics:
	Time per iteration: 37328 [mu s]
	Time per residual norm calculation: 368.000000 [mu s]
	Time per iteration and DOF: 1.972792 [ns]
	Retrieve results bandwidth 2.675000 [GByte/s]
[OGL LOG][Proc: 0]nuTilda: solve_multi_gpu: 96.416 [ms]
BJhipGKOBiCGStab:  Solving for nuTilda, Initial residual = 0.01562381464009606, Final residual = 0.001410510451200237, No Iterations 2
bounding nuTilda, min: -0.001652680141806857 max: 0.006993850094366974 average: 0.0003495130463223611
[INFO] TimeStep: 4496.147 [ms]
ExecutionTime = 324.42 s  ClockTime = 327 s

End

Finalising parallel run
