/*---------------------------------------------------------------------------*\
| =========                 |                                                 |
| \\      /  F ield         | OpenFOAM: The Open Source CFD Toolbox           |
|  \\    /   O peration     | Version:  2306                                  |
|   \\  /    A nd           | Website:  www.openfoam.com                      |
|    \\/     M anipulation  |                                                 |
\*---------------------------------------------------------------------------*/
Build  : a6e826bd55-20230630 OPENFOAM=2306 version=v2306
Arch   : "LSB;label=32;scalar=64"
Exec   : icoFoam -parallel -case /tmp/lidDrivenCavity/workspace/2d089ca02462b521dc4d58d5870a10e5/case
Date   : Dec 20 2023
Time   : 22:47:00
Host   : nla-gpu2.ianm.kit.edu
PID    : 385588
I/O    : uncollated
Case   : /tmp/lidDrivenCavity/workspace/2d089ca02462b521dc4d58d5870a10e5/case
nProcs : 32
Hosts  :
(
    (nla-gpu2.ianm.kit.edu 32)
)
Pstream initialized with:
    floatTransfer      : false
    nProcsSimpleSum    : 0
    nonBlockingExchange: 0 (tuning: 0)
    exchange algorithm : -1
    commsType          : nonBlocking
    polling iterations : 0
trapFpe: Floating point exception trapping enabled (FOAM_SIGFPE).
fileModificationChecking : Monitoring run-time modified files using timeStampMaster (fileModificationSkew 5, maxFileModificationPolls 20)
allowSystemOperations : Allowing user-supplied system call operations

// * * * * * * * * * * * * * * * * * * * * * * * * * * * * * * * * * * * * * //
Create time

--> FOAM Warning : 
    From void* Foam::dlLibraryTable::openLibrary(const Foam::fileName&, bool)
    in file db/dynamicLibrary/dlLibraryTable/dlLibraryTable.C at line 188
    Could not load "libpetscFoam.so"
libpetscFoam.so: cannot open shared object file: No such file or directory
Create mesh for time = 0


PISO: Operating solver in PISO mode

Reading transportProperties

Reading field p

Reading field U

Reading/calculating face flux field phi


Starting time loop

Time = 0.0005

Courant Number mean: 8.62851e-18 max: 8.67362e-15
[INFO] MatrixAssemblyU: 6.235 [ms]
DILUPBiCGStab:  Solving for Ux, Initial residual = 1, Final residual = 0.00283431, No Iterations 5
DILUPBiCGStab:  Solving for Uy:  solution singularity
DILUPBiCGStab:  Solving for Uz:  solution singularity
[INFO] MomentumPredictor: 25.136 [ms]
[INFO] MatrixAssemblyPI: 5.441 [ms]
[INFO] AdjustPhi: 0.584 [ms]
[INFO] ConstrainPressure: 0.009 [ms]
[INFO] MatrixAssemblyPII: 1.618 [ms]
GAMG:  Solving for p, Initial residual = 1, Final residual = 8.84664e-05, No Iterations 22
[INFO] SolveP: 127.031 [ms]
time step continuity errors : sum local = 1.9169e-08, global = 2.03574e-21, cumulative = 2.03574e-21
[INFO] ContinuityError: 0.919 [ms]
[INFO] CorrectBoundary: 0.058 [ms]
[INFO] PISOStep: 138.435 [ms]
[INFO] MatrixAssemblyPI: 5.7 [ms]
[INFO] AdjustPhi: 0.315 [ms]
[INFO] ConstrainPressure: 0.003 [ms]
[INFO] MatrixAssemblyPII: 1.498 [ms]
GAMG:  Solving for p, Initial residual = 0.73116, Final residual = 8.26601e-05, No Iterations 26
[INFO] SolveP: 138.431 [ms]
time step continuity errors : sum local = 2.36391e-08, global = -1.96011e-21, cumulative = 7.56353e-23
[INFO] ContinuityError: 1.078 [ms]
[INFO] CorrectBoundary: 0.253 [ms]
[INFO] PISOStep: 150.02 [ms]
[INFO] TimeStep: 321.128 [ms]
ExecutionTime = 0.68 s  ClockTime = 1 s

Time = 0.001

Courant Number mean: 0.0215183 max: 0.377124
[INFO] MatrixAssemblyU: 3.406 [ms]
DILUPBiCGStab:  Solving for Ux, Initial residual = 0.15031, Final residual = 0.0014087, No Iterations 5
DILUPBiCGStab:  Solving for Uy, Initial residual = 0.368269, Final residual = 0.0028708, No Iterations 5
DILUPBiCGStab:  Solving for Uz, Initial residual = 0.984465, Final residual = 0.00793905, No Iterations 5
[INFO] MomentumPredictor: 40.729 [ms]
[INFO] MatrixAssemblyPI: 5.47 [ms]
[INFO] AdjustPhi: 0.397 [ms]
[INFO] ConstrainPressure: 0.002 [ms]
[INFO] MatrixAssemblyPII: 1.694 [ms]
GAMG:  Solving for p, Initial residual = 0.693069, Final residual = 8.43377e-05, No Iterations 21
[INFO] SolveP: 110.966 [ms]
time step continuity errors : sum local = 2.70427e-08, global = -1.11261e-20, cumulative = -1.10505e-20
[INFO] ContinuityError: 0.899 [ms]
[INFO] CorrectBoundary: 0.515 [ms]
[INFO] PISOStep: 122.018 [ms]
[INFO] MatrixAssemblyPI: 4.895 [ms]
[INFO] AdjustPhi: 3.03 [ms]
[INFO] ConstrainPressure: 0.002 [ms]
[INFO] MatrixAssemblyPII: 1.639 [ms]
GAMG:  Solving for p, Initial residual = 0.622451, Final residual = 9.12443e-05, No Iterations 24
[INFO] SolveP: 124.748 [ms]
time step continuity errors : sum local = 2.9936e-08, global = 3.45296e-21, cumulative = -7.5975e-21
[INFO] ContinuityError: 1.009 [ms]
[INFO] CorrectBoundary: 0.451 [ms]
[INFO] PISOStep: 138.694 [ms]
[INFO] TimeStep: 306.206 [ms]
ExecutionTime = 0.98 s  ClockTime = 1 s

Time = 0.0015

Courant Number mean: 0.0324761 max: 0.441228
[INFO] MatrixAssemblyU: 2.859 [ms]
DILUPBiCGStab:  Solving for Ux, Initial residual = 0.0531254, Final residual = 0.000432349, No Iterations 5
DILUPBiCGStab:  Solving for Uy, Initial residual = 0.124795, Final residual = 0.000734787, No Iterations 5
DILUPBiCGStab:  Solving for Uz, Initial residual = 0.597935, Final residual = 0.00558584, No Iterations 5
[INFO] MomentumPredictor: 41.214 [ms]
[INFO] MatrixAssemblyPI: 5.231 [ms]
[INFO] AdjustPhi: 0.53 [ms]
[INFO] ConstrainPressure: 0.002 [ms]
[INFO] MatrixAssemblyPII: 1.601 [ms]
GAMG:  Solving for p, Initial residual = 0.63373, Final residual = 9.33132e-05, No Iterations 20
[INFO] SolveP: 99.485 [ms]
time step continuity errors : sum local = 2.15629e-08, global = -5.44409e-21, cumulative = -1.30416e-20
[INFO] ContinuityError: 0.68 [ms]
[INFO] CorrectBoundary: 0.046 [ms]
[INFO] PISOStep: 110.364 [ms]
[INFO] MatrixAssemblyPI: 5.538 [ms]
[INFO] AdjustPhi: 3.524 [ms]
[INFO] ConstrainPressure: 0.002 [ms]
[INFO] MatrixAssemblyPII: 1.943 [ms]
GAMG:  Solving for p, Initial residual = 0.581231, Final residual = 9.29626e-05, No Iterations 20
[INFO] SolveP: 112.338 [ms]
time step continuity errors : sum local = 2.09176e-08, global = 3.28835e-21, cumulative = -9.75323e-21
[INFO] ContinuityError: 1.127 [ms]
[INFO] CorrectBoundary: 0.038 [ms]
[INFO] PISOStep: 127.144 [ms]
[INFO] TimeStep: 282.655 [ms]
ExecutionTime = 1.26 s  ClockTime = 1 s

Time = 0.002

Courant Number mean: 0.0388755 max: 0.452935
[INFO] MatrixAssemblyU: 3.686 [ms]
DILUPBiCGStab:  Solving for Ux, Initial residual = 0.0319205, Final residual = 0.000229, No Iterations 5
DILUPBiCGStab:  Solving for Uy, Initial residual = 0.0814083, Final residual = 0.000474758, No Iterations 5
DILUPBiCGStab:  Solving for Uz, Initial residual = 0.314308, Final residual = 0.00242892, No Iterations 5
[INFO] MomentumPredictor: 40.872 [ms]
[INFO] MatrixAssemblyPI: 5.514 [ms]
[INFO] AdjustPhi: 0.201 [ms]
[INFO] ConstrainPressure: 0.002 [ms]
[INFO] MatrixAssemblyPII: 1.689 [ms]
GAMG:  Solving for p, Initial residual = 0.41492, Final residual = 9.78216e-05, No Iterations 18
[INFO] SolveP: 89.831 [ms]
time step continuity errors : sum local = 1.93715e-08, global = 9.99544e-22, cumulative = -8.75369e-21
[INFO] ContinuityError: 0.764 [ms]
[INFO] CorrectBoundary: 0.079 [ms]
[INFO] PISOStep: 100.359 [ms]
[INFO] MatrixAssemblyPI: 5.61 [ms]
[INFO] AdjustPhi: 0.337 [ms]
[INFO] ConstrainPressure: 0.003 [ms]
[INFO] MatrixAssemblyPII: 1.634 [ms]
GAMG:  Solving for p, Initial residual = 0.352935, Final residual = 8.7455e-05, No Iterations 18
[INFO] SolveP: 94.545 [ms]
time step continuity errors : sum local = 1.74903e-08, global = -1.64842e-21, cumulative = -1.04021e-20
[INFO] ContinuityError: 0.945 [ms]
[INFO] CorrectBoundary: 0.175 [ms]
[INFO] PISOStep: 105.251 [ms]
[INFO] TimeStep: 251.644 [ms]
ExecutionTime = 1.51 s  ClockTime = 2 s

Time = 0.0025

Courant Number mean: 0.0439279 max: 0.459606
[INFO] MatrixAssemblyU: 3.683 [ms]
DILUPBiCGStab:  Solving for Ux, Initial residual = 0.023522, Final residual = 0.000146217, No Iterations 5
DILUPBiCGStab:  Solving for Uy, Initial residual = 0.0515472, Final residual = 0.000276616, No Iterations 5
DILUPBiCGStab:  Solving for Uz, Initial residual = 0.128436, Final residual = 0.000862305, No Iterations 5
[INFO] MomentumPredictor: 40.771 [ms]
[INFO] MatrixAssemblyPI: 5.497 [ms]
[INFO] AdjustPhi: 0.267 [ms]
[INFO] ConstrainPressure: 0.002 [ms]
[INFO] MatrixAssemblyPII: 1.684 [ms]
GAMG:  Solving for p, Initial residual = 0.316619, Final residual = 9.65961e-05, No Iterations 19
[INFO] SolveP: 92.748 [ms]
time step continuity errors : sum local = 1.57051e-08, global = -5.76121e-21, cumulative = -1.61633e-20
[INFO] ContinuityError: 0.743 [ms]
[INFO] CorrectBoundary: 0.055 [ms]
[INFO] PISOStep: 103.13 [ms]
[INFO] MatrixAssemblyPI: 5.746 [ms]
[INFO] AdjustPhi: 0.291 [ms]
[INFO] ConstrainPressure: 0.002 [ms]
[INFO] MatrixAssemblyPII: 1.658 [ms]
GAMG:  Solving for p, Initial residual = 0.27108, Final residual = 9.21474e-05, No Iterations 18
[INFO] SolveP: 92.961 [ms]
time step continuity errors : sum local = 1.49302e-08, global = -5.54149e-21, cumulative = -2.17048e-20
[INFO] ContinuityError: 0.96 [ms]
[INFO] CorrectBoundary: 0.465 [ms]
[INFO] PISOStep: 104.242 [ms]
[INFO] TimeStep: 253.245 [ms]
ExecutionTime = 1.76 s  ClockTime = 2 s

Time = 0.003

Courant Number mean: 0.0479688 max: 0.463849
[INFO] MatrixAssemblyU: 3.846 [ms]
DILUPBiCGStab:  Solving for Ux, Initial residual = 0.0179098, Final residual = 0.000103914, No Iterations 5
DILUPBiCGStab:  Solving for Uy, Initial residual = 0.0401365, Final residual = 0.000165323, No Iterations 5
DILUPBiCGStab:  Solving for Uz, Initial residual = 0.108923, Final residual = 0.000732041, No Iterations 5
[INFO] MomentumPredictor: 45.203 [ms]
[INFO] MatrixAssemblyPI: 5.452 [ms]
[INFO] AdjustPhi: 1.209 [ms]
[INFO] ConstrainPressure: 0.002 [ms]
[INFO] MatrixAssemblyPII: 1.46 [ms]
GAMG:  Solving for p, Initial residual = 0.198788, Final residual = 9.52726e-05, No Iterations 18
[INFO] SolveP: 90.76 [ms]
time step continuity errors : sum local = 1.49558e-08, global = -4.87121e-21, cumulative = -2.6576e-20
[INFO] ContinuityError: 0.869 [ms]
[INFO] CorrectBoundary: 0.056 [ms]
[INFO] PISOStep: 102.347 [ms]
[INFO] MatrixAssemblyPI: 5.319 [ms]
[INFO] AdjustPhi: 0.607 [ms]
[INFO] ConstrainPressure: 0.002 [ms]
[INFO] MatrixAssemblyPII: 1.617 [ms]
GAMG:  Solving for p, Initial residual = 0.16549, Final residual = 8.61563e-05, No Iterations 17
[INFO] SolveP: 84.241 [ms]
time step continuity errors : sum local = 1.35077e-08, global = -4.95543e-21, cumulative = -3.15315e-20
[INFO] ContinuityError: 0.898 [ms]
[INFO] CorrectBoundary: 0.25 [ms]
[INFO] PISOStep: 95.418 [ms]
[INFO] TimeStep: 247.885 [ms]
ExecutionTime = 2.01 s  ClockTime = 2 s

Time = 0.0035

Courant Number mean: 0.051379 max: 0.466725
[INFO] MatrixAssemblyU: 3.625 [ms]
DILUPBiCGStab:  Solving for Ux, Initial residual = 0.0146495, Final residual = 7.21975e-05, No Iterations 5
DILUPBiCGStab:  Solving for Uy, Initial residual = 0.0317705, Final residual = 0.000141641, No Iterations 5
DILUPBiCGStab:  Solving for Uz, Initial residual = 0.0760963, Final residual = 0.000446754, No Iterations 5
[INFO] MomentumPredictor: 45.225 [ms]
[INFO] MatrixAssemblyPI: 6.483 [ms]
[INFO] AdjustPhi: 0.226 [ms]
[INFO] ConstrainPressure: 0.003 [ms]
[INFO] MatrixAssemblyPII: 1.776 [ms]
GAMG:  Solving for p, Initial residual = 0.140765, Final residual = 9.17103e-05, No Iterations 19
[INFO] SolveP: 100.451 [ms]
time step continuity errors : sum local = 1.36669e-08, global = 2.56473e-21, cumulative = -2.89667e-20
[INFO] ContinuityError: 0.983 [ms]
[INFO] CorrectBoundary: 0.04 [ms]
[INFO] PISOStep: 112.088 [ms]
[INFO] MatrixAssemblyPI: 6.044 [ms]
[INFO] AdjustPhi: 0.935 [ms]
[INFO] ConstrainPressure: 0.002 [ms]
[INFO] MatrixAssemblyPII: 1.776 [ms]
GAMG:  Solving for p, Initial residual = 0.117898, Final residual = 8.72729e-05, No Iterations 19
[INFO] SolveP: 96.759 [ms]
time step continuity errors : sum local = 1.30036e-08, global = -3.45038e-21, cumulative = -3.24171e-20
[INFO] ContinuityError: 0.965 [ms]
[INFO] CorrectBoundary: 0.518 [ms]
[INFO] PISOStep: 109.401 [ms]
[INFO] TimeStep: 271.328 [ms]
ExecutionTime = 2.28 s  ClockTime = 2 s

Time = 0.004

Courant Number mean: 0.0543192 max: 0.468936
[INFO] MatrixAssemblyU: 4.135 [ms]
DILUPBiCGStab:  Solving for Ux, Initial residual = 0.0122995, Final residual = 5.46262e-05, No Iterations 5
DILUPBiCGStab:  Solving for Uy, Initial residual = 0.0265115, Final residual = 8.82013e-05, No Iterations 5
DILUPBiCGStab:  Solving for Uz, Initial residual = 0.0665551, Final residual = 0.000309461, No Iterations 5
[INFO] MomentumPredictor: 40.483 [ms]
[INFO] MatrixAssemblyPI: 5.459 [ms]
[INFO] AdjustPhi: 0.435 [ms]
[INFO] ConstrainPressure: 0.002 [ms]
[INFO] MatrixAssemblyPII: 1.62 [ms]
GAMG:  Solving for p, Initial residual = 0.0925042, Final residual = 8.24775e-05, No Iterations 17
[INFO] SolveP: 83.557 [ms]
time step continuity errors : sum local = 1.20149e-08, global = -1.29604e-20, cumulative = -4.53775e-20
[INFO] ContinuityError: 0.759 [ms]
[INFO] CorrectBoundary: 0.053 [ms]
[INFO] PISOStep: 94.036 [ms]
[INFO] MatrixAssemblyPI: 5.509 [ms]
[INFO] AdjustPhi: 0.36 [ms]
[INFO] ConstrainPressure: 0.002 [ms]
[INFO] MatrixAssemblyPII: 1.661 [ms]
GAMG:  Solving for p, Initial residual = 0.0768003, Final residual = 8.15091e-05, No Iterations 17
[INFO] SolveP: 83.804 [ms]
time step continuity errors : sum local = 1.19418e-08, global = 5.76527e-21, cumulative = -3.96122e-20
[INFO] ContinuityError: 0.846 [ms]
[INFO] CorrectBoundary: 0.07 [ms]
[INFO] PISOStep: 94.312 [ms]
[INFO] TimeStep: 234.05 [ms]
ExecutionTime = 2.51 s  ClockTime = 3 s

Time = 0.0045

Courant Number mean: 0.0568976 max: 0.47064
[INFO] MatrixAssemblyU: 3.618 [ms]
DILUPBiCGStab:  Solving for Ux, Initial residual = 0.010542, Final residual = 4.2624e-05, No Iterations 5
DILUPBiCGStab:  Solving for Uy, Initial residual = 0.022675, Final residual = 7.57301e-05, No Iterations 5
DILUPBiCGStab:  Solving for Uz, Initial residual = 0.0549385, Final residual = 0.000234741, No Iterations 5
[INFO] MomentumPredictor: 43.345 [ms]
[INFO] MatrixAssemblyPI: 5.405 [ms]
[INFO] AdjustPhi: 0.83 [ms]
[INFO] ConstrainPressure: 0.002 [ms]
[INFO] MatrixAssemblyPII: 1.669 [ms]
GAMG:  Solving for p, Initial residual = 0.0681183, Final residual = 9.34869e-05, No Iterations 18
[INFO] SolveP: 94.839 [ms]
time step continuity errors : sum local = 1.3459e-08, global = -5.64551e-21, cumulative = -4.52577e-20
[INFO] ContinuityError: 1.004 [ms]
[INFO] CorrectBoundary: 0.156 [ms]
[INFO] PISOStep: 107.091 [ms]
[INFO] MatrixAssemblyPI: 5.917 [ms]
[INFO] AdjustPhi: 1.181 [ms]
[INFO] ConstrainPressure: 0.002 [ms]
[INFO] MatrixAssemblyPII: 1.746 [ms]
GAMG:  Solving for p, Initial residual = 0.05702, Final residual = 8.86703e-05, No Iterations 18
[INFO] SolveP: 87.907 [ms]
time step continuity errors : sum local = 1.27519e-08, global = -1.65736e-21, cumulative = -4.69151e-20
[INFO] ContinuityError: 0.749 [ms]
[INFO] CorrectBoundary: 0.067 [ms]
[INFO] PISOStep: 99.861 [ms]
[INFO] TimeStep: 254.964 [ms]
ExecutionTime = 2.76 s  ClockTime = 3 s

Time = 0.005

Courant Number mean: 0.0591941 max: 0.472035
[INFO] MatrixAssemblyU: 3.721 [ms]
DILUPBiCGStab:  Solving for Ux, Initial residual = 0.00923116, Final residual = 3.56562e-05, No Iterations 5
DILUPBiCGStab:  Solving for Uy, Initial residual = 0.0197242, Final residual = 5.86976e-05, No Iterations 5
DILUPBiCGStab:  Solving for Uz, Initial residual = 0.0498951, Final residual = 0.000196144, No Iterations 5
[INFO] MomentumPredictor: 40.682 [ms]
[INFO] MatrixAssemblyPI: 5.454 [ms]
[INFO] AdjustPhi: 0.336 [ms]
[INFO] ConstrainPressure: 0.002 [ms]
[INFO] MatrixAssemblyPII: 1.665 [ms]
GAMG:  Solving for p, Initial residual = 0.0467577, Final residual = 9.81211e-05, No Iterations 18
[INFO] SolveP: 95.495 [ms]
time step continuity errors : sum local = 1.39647e-08, global = -6.14957e-22, cumulative = -4.753e-20
[INFO] ContinuityError: 1.014 [ms]
[INFO] CorrectBoundary: 1.069 [ms]
[INFO] PISOStep: 107.095 [ms]
[INFO] MatrixAssemblyPI: 5.125 [ms]
[INFO] AdjustPhi: 0.919 [ms]
[INFO] ConstrainPressure: 0.002 [ms]
[INFO] MatrixAssemblyPII: 1.438 [ms]
GAMG:  Solving for p, Initial residual = 0.0397012, Final residual = 8.51032e-05, No Iterations 17
[INFO] SolveP: 84.914 [ms]
time step continuity errors : sum local = 1.21064e-08, global = -4.08053e-21, cumulative = -5.16106e-20
[INFO] ContinuityError: 0.845 [ms]
[INFO] CorrectBoundary: 0.239 [ms]
[INFO] PISOStep: 96.616 [ms]
[INFO] TimeStep: 249.043 [ms]
ExecutionTime = 3.01 s  ClockTime = 3 s

Time = 0.0055

Courant Number mean: 0.061255 max: 0.473186
[INFO] MatrixAssemblyU: 3.692 [ms]
DILUPBiCGStab:  Solving for Ux, Initial residual = 0.00814662, Final residual = 2.9832e-05, No Iterations 5
DILUPBiCGStab:  Solving for Uy, Initial residual = 0.0174479, Final residual = 5.23521e-05, No Iterations 5
DILUPBiCGStab:  Solving for Uz, Initial residual = 0.0452996, Final residual = 0.000175042, No Iterations 5
[INFO] MomentumPredictor: 40.332 [ms]
[INFO] MatrixAssemblyPI: 5.433 [ms]
[INFO] AdjustPhi: 0.413 [ms]
[INFO] ConstrainPressure: 0.002 [ms]
[INFO] MatrixAssemblyPII: 1.684 [ms]
GAMG:  Solving for p, Initial residual = 0.0371276, Final residual = 8.00576e-05, No Iterations 18
[INFO] SolveP: 88.976 [ms]
time step continuity errors : sum local = 1.13235e-08, global = 2.22643e-21, cumulative = -4.93841e-20
[INFO] ContinuityError: 0.635 [ms]
[INFO] CorrectBoundary: 0.046 [ms]
[INFO] PISOStep: 99.999 [ms]
[INFO] MatrixAssemblyPI: 5.455 [ms]
[INFO] AdjustPhi: 0.18 [ms]
[INFO] ConstrainPressure: 0.002 [ms]
[INFO] MatrixAssemblyPII: 1.95 [ms]
GAMG:  Solving for p, Initial residual = 0.0317826, Final residual = 9.77723e-05, No Iterations 17
[INFO] SolveP: 91.168 [ms]
time step continuity errors : sum local = 1.39114e-08, global = 1.86152e-21, cumulative = -4.75226e-20
[INFO] ContinuityError: 1.005 [ms]
[INFO] CorrectBoundary: 0.044 [ms]
[INFO] PISOStep: 101.706 [ms]
[INFO] TimeStep: 246.874 [ms]
ExecutionTime = 3.26 s  ClockTime = 3 s

Time = 0.006

Courant Number mean: 0.0631276 max: 0.474166
[INFO] MatrixAssemblyU: 3.559 [ms]
DILUPBiCGStab:  Solving for Ux, Initial residual = 0.00729596, Final residual = 2.60982e-05, No Iterations 5
DILUPBiCGStab:  Solving for Uy, Initial residual = 0.0155732, Final residual = 4.55678e-05, No Iterations 5
DILUPBiCGStab:  Solving for Uz, Initial residual = 0.0401719, Final residual = 0.000150704, No Iterations 5
[INFO] MomentumPredictor: 43.157 [ms]
[INFO] MatrixAssemblyPI: 5.447 [ms]
[INFO] AdjustPhi: 0.346 [ms]
[INFO] ConstrainPressure: 0.002 [ms]
[INFO] MatrixAssemblyPII: 1.605 [ms]
GAMG:  Solving for p, Initial residual = 0.0275001, Final residual = 9.47112e-05, No Iterations 18
[INFO] SolveP: 87.931 [ms]
time step continuity errors : sum local = 1.33605e-08, global = -9.95982e-21, cumulative = -5.74824e-20
[INFO] ContinuityError: 0.762 [ms]
[INFO] CorrectBoundary: 0.063 [ms]
[INFO] PISOStep: 98.382 [ms]
[INFO] MatrixAssemblyPI: 5.807 [ms]
[INFO] AdjustPhi: 0.339 [ms]
[INFO] ConstrainPressure: 0.002 [ms]
[INFO] MatrixAssemblyPII: 1.644 [ms]
GAMG:  Solving for p, Initial residual = 0.0241625, Final residual = 9.76619e-05, No Iterations 17
[INFO] SolveP: 82.94 [ms]
time step continuity errors : sum local = 1.38419e-08, global = 4.28273e-22, cumulative = -5.70542e-20
[INFO] ContinuityError: 0.715 [ms]
[INFO] CorrectBoundary: 0.075 [ms]
[INFO] PISOStep: 93.597 [ms]
[INFO] TimeStep: 240.311 [ms]
ExecutionTime = 3.5 s  ClockTime = 3 s

Time = 0.0065

Courant Number mean: 0.0648324 max: 0.475002
[INFO] MatrixAssemblyU: 3.757 [ms]
DILUPBiCGStab:  Solving for Ux, Initial residual = 0.00656279, Final residual = 2.28424e-05, No Iterations 5
DILUPBiCGStab:  Solving for Uy, Initial residual = 0.0140503, Final residual = 4.09489e-05, No Iterations 5
DILUPBiCGStab:  Solving for Uz, Initial residual = 0.0374705, Final residual = 0.000140548, No Iterations 5
[INFO] MomentumPredictor: 41.149 [ms]
[INFO] MatrixAssemblyPI: 5.866 [ms]
[INFO] AdjustPhi: 0.357 [ms]
[INFO] ConstrainPressure: 0.002 [ms]
[INFO] MatrixAssemblyPII: 1.717 [ms]
GAMG:  Solving for p, Initial residual = 0.0233163, Final residual = 9.22319e-05, No Iterations 18
[INFO] SolveP: 88.264 [ms]
time step continuity errors : sum local = 1.30104e-08, global = -3.01306e-21, cumulative = -6.00672e-20
[INFO] ContinuityError: 0.748 [ms]
[INFO] CorrectBoundary: 0.058 [ms]
[INFO] PISOStep: 99.144 [ms]
[INFO] MatrixAssemblyPI: 5.78 [ms]
[INFO] AdjustPhi: 0.319 [ms]
[INFO] ConstrainPressure: 0.003 [ms]
[INFO] MatrixAssemblyPII: 1.631 [ms]
GAMG:  Solving for p, Initial residual = 0.0206878, Final residual = 8.71975e-05, No Iterations 17
[INFO] SolveP: 82.83 [ms]
time step continuity errors : sum local = 1.2344e-08, global = -3.16919e-21, cumulative = -6.32364e-20
[INFO] ContinuityError: 0.743 [ms]
[INFO] CorrectBoundary: 0.047 [ms]
[INFO] PISOStep: 93.436 [ms]
[INFO] TimeStep: 238.432 [ms]
ExecutionTime = 3.73 s  ClockTime = 4 s

Time = 0.007

Courant Number mean: 0.0664008 max: 0.475734
[INFO] MatrixAssemblyU: 3.624 [ms]
DILUPBiCGStab:  Solving for Ux, Initial residual = 0.00596611, Final residual = 2.05307e-05, No Iterations 5
DILUPBiCGStab:  Solving for Uy, Initial residual = 0.0127533, Final residual = 3.68919e-05, No Iterations 5
DILUPBiCGStab:  Solving for Uz, Initial residual = 0.0339303, Final residual = 0.000126626, No Iterations 5
[INFO] MomentumPredictor: 41.08 [ms]
[INFO] MatrixAssemblyPI: 5.8 [ms]
[INFO] AdjustPhi: 0.4 [ms]
[INFO] ConstrainPressure: 0.002 [ms]
[INFO] MatrixAssemblyPII: 1.725 [ms]
GAMG:  Solving for p, Initial residual = 0.0189188, Final residual = 9.34753e-05, No Iterations 17
[INFO] SolveP: 84.212 [ms]
time step continuity errors : sum local = 1.32179e-08, global = 3.95289e-22, cumulative = -6.28411e-20
[INFO] ContinuityError: 0.817 [ms]
[INFO] CorrectBoundary: 0.092 [ms]
[INFO] PISOStep: 95.113 [ms]
[INFO] MatrixAssemblyPI: 5.732 [ms]
[INFO] AdjustPhi: 0.541 [ms]
[INFO] ConstrainPressure: 0.003 [ms]
[INFO] MatrixAssemblyPII: 1.639 [ms]
GAMG:  Solving for p, Initial residual = 0.0171855, Final residual = 8.5955e-05, No Iterations 17
[INFO] SolveP: 82.883 [ms]
time step continuity errors : sum local = 1.2159e-08, global = -8.17844e-21, cumulative = -7.10196e-20
[INFO] ContinuityError: 0.729 [ms]
[INFO] CorrectBoundary: 0.053 [ms]
[INFO] PISOStep: 93.665 [ms]
[INFO] TimeStep: 234.411 [ms]
ExecutionTime = 3.97 s  ClockTime = 4 s

Time = 0.0075

Courant Number mean: 0.0678484 max: 0.476374
[INFO] MatrixAssemblyU: 3.627 [ms]
DILUPBiCGStab:  Solving for Ux, Initial residual = 0.00543863, Final residual = 1.8501e-05, No Iterations 5
DILUPBiCGStab:  Solving for Uy, Initial residual = 0.0116614, Final residual = 3.35335e-05, No Iterations 5
DILUPBiCGStab:  Solving for Uz, Initial residual = 0.031054, Final residual = 0.000114912, No Iterations 5
[INFO] MomentumPredictor: 41.089 [ms]
[INFO] MatrixAssemblyPI: 5.895 [ms]
[INFO] AdjustPhi: 0.211 [ms]
[INFO] ConstrainPressure: 0.002 [ms]
[INFO] MatrixAssemblyPII: 1.713 [ms]
GAMG:  Solving for p, Initial residual = 0.0166441, Final residual = 8.93111e-05, No Iterations 17
[INFO] SolveP: 90.305 [ms]
time step continuity errors : sum local = 1.26119e-08, global = -1.12543e-21, cumulative = -7.2145e-20
[INFO] ContinuityError: 0.936 [ms]
[INFO] CorrectBoundary: 0.171 [ms]
[INFO] PISOStep: 101.235 [ms]
[INFO] MatrixAssemblyPI: 5.937 [ms]
[INFO] AdjustPhi: 0.825 [ms]
[INFO] ConstrainPressure: 0.002 [ms]
[INFO] MatrixAssemblyPII: 1.711 [ms]
GAMG:  Solving for p, Initial residual = 0.0152247, Final residual = 9.03481e-05, No Iterations 18
[INFO] SolveP: 87.939 [ms]
time step continuity errors : sum local = 1.27307e-08, global = -5.37719e-22, cumulative = -7.26827e-20
[INFO] ContinuityError: 0.737 [ms]
[INFO] CorrectBoundary: 0.062 [ms]
[INFO] PISOStep: 99.565 [ms]
[INFO] TimeStep: 246.439 [ms]
ExecutionTime = 4.21 s  ClockTime = 4 s

Time = 0.008

Courant Number mean: 0.0691861 max: 0.476944
[INFO] MatrixAssemblyU: 3.553 [ms]
DILUPBiCGStab:  Solving for Ux, Initial residual = 0.00499608, Final residual = 1.69116e-05, No Iterations 5
DILUPBiCGStab:  Solving for Uy, Initial residual = 0.0107096, Final residual = 3.06871e-05, No Iterations 5
DILUPBiCGStab:  Solving for Uz, Initial residual = 0.0291616, Final residual = 0.000108429, No Iterations 5
[INFO] MomentumPredictor: 40.691 [ms]
[INFO] MatrixAssemblyPI: 5.401 [ms]
[INFO] AdjustPhi: 0.383 [ms]
[INFO] ConstrainPressure: 0.002 [ms]
[INFO] MatrixAssemblyPII: 1.665 [ms]
GAMG:  Solving for p, Initial residual = 0.0148734, Final residual = 7.96658e-05, No Iterations 19
[INFO] SolveP: 98.157 [ms]
time step continuity errors : sum local = 1.12089e-08, global = -2.55578e-21, cumulative = -7.52385e-20
[INFO] ContinuityError: 1.087 [ms]
[INFO] CorrectBoundary: 0.506 [ms]
[INFO] PISOStep: 109.272 [ms]
[INFO] MatrixAssemblyPI: 5.249 [ms]
[INFO] AdjustPhi: 0.748 [ms]
[INFO] ConstrainPressure: 0.002 [ms]
[INFO] MatrixAssemblyPII: 1.509 [ms]
GAMG:  Solving for p, Initial residual = 0.0138128, Final residual = 9.55375e-05, No Iterations 18
[INFO] SolveP: 92.028 [ms]
time step continuity errors : sum local = 1.34949e-08, global = -3.99477e-21, cumulative = -7.92333e-20
[INFO] ContinuityError: 0.918 [ms]
[INFO] CorrectBoundary: 0.242 [ms]
[INFO] PISOStep: 104.542 [ms]
[INFO] TimeStep: 259.022 [ms]
ExecutionTime = 4.47 s  ClockTime = 4 s

Time = 0.0085

Courant Number mean: 0.0704321 max: 0.477454
[INFO] MatrixAssemblyU: 3.096 [ms]
DILUPBiCGStab:  Solving for Ux, Initial residual = 0.00459926, Final residual = 1.55016e-05, No Iterations 5
DILUPBiCGStab:  Solving for Uy, Initial residual = 0.00988721, Final residual = 2.81956e-05, No Iterations 5
DILUPBiCGStab:  Solving for Uz, Initial residual = 0.0274489, Final residual = 0.000102916, No Iterations 5
[INFO] MomentumPredictor: 41.437 [ms]
[INFO] MatrixAssemblyPI: 5.226 [ms]
[INFO] AdjustPhi: 0.557 [ms]
[INFO] ConstrainPressure: 0.002 [ms]
[INFO] MatrixAssemblyPII: 1.684 [ms]
GAMG:  Solving for p, Initial residual = 0.0135429, Final residual = 8.45794e-05, No Iterations 18
[INFO] SolveP: 90.886 [ms]
time step continuity errors : sum local = 1.1898e-08, global = 3.45425e-21, cumulative = -7.5779e-20
[INFO] ContinuityError: 0.892 [ms]
[INFO] CorrectBoundary: 0.254 [ms]
[INFO] PISOStep: 101.975 [ms]
[INFO] MatrixAssemblyPI: 7.625 [ms]
[INFO] AdjustPhi: 0.193 [ms]
[INFO] ConstrainPressure: 0.002 [ms]
[INFO] MatrixAssemblyPII: 2.04 [ms]
GAMG:  Solving for p, Initial residual = 0.0126211, Final residual = 9.70265e-05, No Iterations 14
[INFO] SolveP: 74.887 [ms]
time step continuity errors : sum local = 1.36474e-08, global = -1.42368e-21, cumulative = -7.72027e-20
[INFO] ContinuityError: 0.983 [ms]
[INFO] CorrectBoundary: 0.077 [ms]
[INFO] PISOStep: 87.713 [ms]
[INFO] TimeStep: 235.176 [ms]
ExecutionTime = 4.7 s  ClockTime = 5 s

Time = 0.009

Courant Number mean: 0.0715957 max: 0.477912
[INFO] MatrixAssemblyU: 3.707 [ms]
DILUPBiCGStab:  Solving for Ux, Initial residual = 0.00425935, Final residual = 1.43159e-05, No Iterations 5
DILUPBiCGStab:  Solving for Uy, Initial residual = 0.0091587, Final residual = 2.60588e-05, No Iterations 5
DILUPBiCGStab:  Solving for Uz, Initial residual = 0.0260728, Final residual = 9.84764e-05, No Iterations 5
[INFO] MomentumPredictor: 43.723 [ms]
[INFO] MatrixAssemblyPI: 5.572 [ms]
[INFO] AdjustPhi: 1.11 [ms]
[INFO] ConstrainPressure: 0.002 [ms]
[INFO] MatrixAssemblyPII: 1.644 [ms]
GAMG:  Solving for p, Initial residual = 0.0128423, Final residual = 8.26288e-05, No Iterations 19
[INFO] SolveP: 92.983 [ms]
time step continuity errors : sum local = 1.16626e-08, global = -5.58693e-21, cumulative = -8.27896e-20
[INFO] ContinuityError: 0.755 [ms]
[INFO] CorrectBoundary: 0.05 [ms]
[INFO] PISOStep: 104.302 [ms]
[INFO] MatrixAssemblyPI: 5.502 [ms]
[INFO] AdjustPhi: 2.343 [ms]
[INFO] ConstrainPressure: 0.002 [ms]
[INFO] MatrixAssemblyPII: 1.658 [ms]
GAMG:  Solving for p, Initial residual = 0.0120468, Final residual = 8.97071e-05, No Iterations 18
[INFO] SolveP: 90.45 [ms]
time step continuity errors : sum local = 1.26374e-08, global = -6.33496e-21, cumulative = -8.91246e-20
[INFO] ContinuityError: 1.28 [ms]
[INFO] CorrectBoundary: 0.413 [ms]
[INFO] PISOStep: 104.054 [ms]
[INFO] TimeStep: 258.248 [ms]
ExecutionTime = 4.96 s  ClockTime = 5 s

Time = 0.0095

Courant Number mean: 0.0726829 max: 0.478327
[INFO] MatrixAssemblyU: 3.873 [ms]
DILUPBiCGStab:  Solving for Ux, Initial residual = 0.00395002, Final residual = 1.32675e-05, No Iterations 5
DILUPBiCGStab:  Solving for Uy, Initial residual = 0.00851821, Final residual = 2.41556e-05, No Iterations 5
DILUPBiCGStab:  Solving for Uz, Initial residual = 0.0244343, Final residual = 9.30408e-05, No Iterations 5
[INFO] MomentumPredictor: 40.549 [ms]
[INFO] MatrixAssemblyPI: 5.525 [ms]
[INFO] AdjustPhi: 0.352 [ms]
[INFO] ConstrainPressure: 0.002 [ms]
[INFO] MatrixAssemblyPII: 1.654 [ms]
GAMG:  Solving for p, Initial residual = 0.0117627, Final residual = 8.11762e-05, No Iterations 15
[INFO] SolveP: 73.463 [ms]
time step continuity errors : sum local = 1.14708e-08, global = 3.18651e-21, cumulative = -8.59381e-20
[INFO] ContinuityError: 0.744 [ms]
[INFO] CorrectBoundary: 0.051 [ms]
[INFO] PISOStep: 83.899 [ms]
[INFO] MatrixAssemblyPI: 5.79 [ms]
[INFO] AdjustPhi: 0.307 [ms]
[INFO] ConstrainPressure: 0.002 [ms]
[INFO] MatrixAssemblyPII: 1.835 [ms]
GAMG:  Solving for p, Initial residual = 0.0110731, Final residual = 8.23209e-05, No Iterations 18
[INFO] SolveP: 89.07 [ms]
time step continuity errors : sum local = 1.15939e-08, global = -3.64745e-21, cumulative = -8.95855e-20
[INFO] ContinuityError: 0.854 [ms]
[INFO] CorrectBoundary: 0.051 [ms]
[INFO] PISOStep: 99.992 [ms]
[INFO] TimeStep: 229.586 [ms]
ExecutionTime = 5.19 s  ClockTime = 5 s

Time = 0.01

Courant Number mean: 0.0737005 max: 0.478704
[INFO] MatrixAssemblyU: 3.682 [ms]
DILUPBiCGStab:  Solving for Ux, Initial residual = 0.00368084, Final residual = 1.23312e-05, No Iterations 5
DILUPBiCGStab:  Solving for Uy, Initial residual = 0.00794218, Final residual = 2.24811e-05, No Iterations 5
DILUPBiCGStab:  Solving for Uz, Initial residual = 0.0223933, Final residual = 8.50041e-05, No Iterations 5
[INFO] MomentumPredictor: 43.91 [ms]
[INFO] MatrixAssemblyPI: 5.239 [ms]
[INFO] AdjustPhi: 1.556 [ms]
[INFO] ConstrainPressure: 0.002 [ms]
[INFO] MatrixAssemblyPII: 1.684 [ms]
GAMG:  Solving for p, Initial residual = 0.0109821, Final residual = 8.98002e-05, No Iterations 18
[INFO] SolveP: 88.169 [ms]
time step continuity errors : sum local = 1.26864e-08, global = -5.07036e-21, cumulative = -9.46559e-20
[INFO] ContinuityError: 0.765 [ms]
[INFO] CorrectBoundary: 0.074 [ms]
[INFO] PISOStep: 99.898 [ms]
[INFO] MatrixAssemblyPI: 5.282 [ms]
[INFO] AdjustPhi: 0.347 [ms]
[INFO] ConstrainPressure: 0.002 [ms]
[INFO] MatrixAssemblyPII: 1.62 [ms]
GAMG:  Solving for p, Initial residual = 0.0103294, Final residual = 7.47855e-05, No Iterations 16
[INFO] SolveP: 78.378 [ms]
time step continuity errors : sum local = 1.0511e-08, global = -1.04305e-20, cumulative = -1.05086e-19
[INFO] ContinuityError: 0.742 [ms]
[INFO] CorrectBoundary: 0.079 [ms]
[INFO] PISOStep: 88.514 [ms]
[INFO] TimeStep: 237.054 [ms]
ExecutionTime = 5.43 s  ClockTime = 5 s

End

Finalising parallel run
