/*---------------------------------------------------------------------------*\
| =========                 |                                                 |
| \\      /  F ield         | OpenFOAM: The Open Source CFD Toolbox           |
|  \\    /   O peration     | Version:  2312                                  |
|   \\  /    A nd           | Website:  www.openfoam.com                      |
|    \\/     M anipulation  |                                                 |
\*---------------------------------------------------------------------------*/
Build  : a46b310f-20240104 OPENFOAM=2312 version=v2312
Arch   : "LSB;label=32;scalar=64"
Exec   : icoFoam -parallel -case /hppfs/scratch/0B/di35yan/lidDriven3D/workspace/15ce8cb7ed828cda4d92ede516dc7b2b/case
Date   : Feb 17 2024
Time   : 21:01:52
Host   : i20r01c05s02
PID    : 209345
I/O    : uncollated
Case   : /hppfs/scratch/0B/di35yan/lidDriven3D/workspace/15ce8cb7ed828cda4d92ede516dc7b2b/case
nProcs : 12
Hosts  :
(
    (i20r01c05s02 12)
)
Pstream initialized with:
    floatTransfer      : false
    nProcsSimpleSum    : 0
    nonBlockingExchange: 0 (tuning: 0)
    exchange algorithm : 0
    commsType          : nonBlocking
    polling iterations : 0
trapFpe: Floating point exception trapping enabled (FOAM_SIGFPE).
fileModificationChecking : Monitoring run-time modified files using timeStampMaster (fileModificationSkew 5, maxFileModificationPolls 20)
allowSystemOperations : Allowing user-supplied system call operations

// * * * * * * * * * * * * * * * * * * * * * * * * * * * * * * * * * * * * * //
Create time

--> FOAM Warning : 
    From void* Foam::dlLibraryTable::openLibrary(const Foam::fileName&, bool)
    in file db/dynamicLibrary/dlLibraryTable/dlLibraryTable.C at line 188
    Could not load "libpetscFoam.so"
libpetscFoam.so: cannot open shared object file: No such file or directory
Create mesh for time = 0


PISO: Operating solver in PISO mode

Reading transportProperties

Reading field p

Reading field U

Reading/calculating face flux field phi


Starting time loop

Time = 0.000125

Courant Number mean: 8.02505e-18 max: 4.85723e-14
[INFO] MatrixAssemblyU: 741.011 [ms]
DILUPBiCGStab:  Solving for Ux, Initial residual = 1, Final residual = 0.0217354, No Iterations 5
DILUPBiCGStab:  Solving for Uy:  solution singularity
DILUPBiCGStab:  Solving for Uz:  solution singularity
[INFO] MomentumPredictor: 2885.22 [ms]
[INFO] MatrixAssemblyPI: 780.779 [ms]
[INFO] AdjustPhi: 81.308 [ms]
[INFO] ConstrainPressure: 0.007 [ms]
[INFO] MatrixAssemblyPII: 241.154 [ms]
[OGL LOG][lduLduBase.H:119] Initialising OGL
	OGL commit:  34fc915+
	Branch: fix/cyclic_interfaces 
	Build type: Debug
	Ginkgo version: 1.8.0 ( develop)
	Ginkgo commit: fc86d48b78cebd2b2c5833a2dcf0fe40f615cf19
	MPI is GPU aware: 1
	Forces host buffer based communication: 0
	CPU ranks per GPU: 1
	Matrix format: Ell
	End OGL_INFO
[OGL LOG][Proc: 0]: global_index_init: 0.456 [ms]
[OGL LOG][Proc: 0]p_local_cols: call_init: 0.79 [ms]
[OGL LOG][Proc: 0]p_local_rows: call_init: 0.028 [ms]
[OGL LOG][Proc: 0]p_local_ldu_map: call_init: 0.019 [ms]
[OGL LOG][Proc: 0]p_local_coeffs: call_init: 2.987 [ms]
[OGL LOG][Proc: 0]p_non_local_cols: call_init: 0.01 [ms]
[OGL LOG][Proc: 0]p_non_local_rows: call_init: 0.005 [ms]
[OGL LOG][Proc: 0]p_non_local_ldu_map: call_init: 0.003 [ms]
[OGL LOG][Proc: 0]p_non_local_coeffs: call_init: 0.02 [ms]
[OGL LOG][Proc: 0]p: init_local_sparsity_pattern: 81805.9 [ms]
[OGL LOG][Proc: 0]p: init_non_local_sparsity_pattern: 113.641 [ms]
[OGL LOG][Proc: 0]p: update_local_matrix_data: 2842.67 [ms]
[OGL LOG][Proc: 0]p: update_non_local_matrix_data: 1.938 [ms]
[OGL LOG][Proc: 0]device_partition: call_init: 0.258 [ms]
[OGL LOG][Proc: 0]p_matrix: call_init: 599.207 [ms]
[OGL LOG][Proc: 0]p_rhs: call_init: 18.522 [ms]
[OGL LOG][Proc: 0]p_solution: call_init: 10.395 [ms]
[OGL LOG][Proc: 0]p: init_precond: 2.014 [ms]
[OGL LOG][StoppingCriterion.H:239] Creating stopping criterion with minIter 0 frequency 1
[OGL LOG][Proc: 0]p: generate_solver: 0.809 [ms]
[OGL LOG][Proc: 0]p: solve: 61885.3 [ms]
[OGL LOG][Proc: 0]p: copy_x_back: 14.945 [ms]
[OGL LOG][lduLduBase.H:330] 
Statistics:
	Time per iteration: 19041 [mu s]
	Time per residual norm calculation: 51071.000000 [mu s]
	Time per iteration and DOF: 0.297516 [ns]
	Retrieve results bandwidth 2.864000 [GByte/s]
[OGL LOG][Proc: 0]p: solve_multi_gpu: 62543.8 [ms]
nonedpcppGKOCG:  Solving for p, Initial residual = 1, Final residual = 9.87786e-05, No Iterations 3250
[INFO] SolveP: 147377 [ms]
time step continuity errors : sum local = 2.66379e-09, global = 1.82002e-22, cumulative = 1.82002e-22
[INFO] ContinuityError: 107.144 [ms]
[INFO] CorrectBoundary: 22.059 [ms]
[INFO] PISOStep: 148873 [ms]
[INFO] MatrixAssemblyPI: 704.69 [ms]
[INFO] AdjustPhi: 117.42 [ms]
[INFO] ConstrainPressure: 0.003 [ms]
[INFO] MatrixAssemblyPII: 219.839 [ms]
[OGL LOG][Proc: 0]: global_index_init: 0.033 [ms]
[OGL LOG][Proc: 0]p_local_coeffs: call_update: 0.001 [ms]
[OGL LOG][Proc: 0]p_non_local_coeffs: call_update: 0 [ms]
[OGL LOG][Proc: 0]p: update_local_matrix_data: 148.091 [ms]
[OGL LOG][Proc: 0]p: update_non_local_matrix_data: 1.669 [ms]
[OGL LOG][Proc: 0]p: regenerate_distributed_matrix: 475.352 [ms]
[OGL LOG][Proc: 0]p_matrix: call_update: 537.798 [ms]
[OGL LOG][Proc: 0]p_rhs: call_update: 17.882 [ms]
[OGL LOG][Proc: 0]p: init_precond: 0.074 [ms]
[OGL LOG][StoppingCriterion.H:239] Creating stopping criterion with minIter 0 frequency 1
[OGL LOG][Proc: 0]p: generate_solver: 0.023 [ms]
[OGL LOG][Proc: 0]p: solve: 60750.5 [ms]
[OGL LOG][Proc: 0]p: copy_x_back: 15.421 [ms]
[OGL LOG][lduLduBase.H:330] 
Statistics:
	Time per iteration: 18773 [mu s]
	Time per residual norm calculation: 5060.000000 [mu s]
	Time per iteration and DOF: 0.293328 [ns]
	Retrieve results bandwidth 2.776000 [GByte/s]
[OGL LOG][Proc: 0]p: solve_multi_gpu: 61325.7 [ms]
nonedpcppGKOCG:  Solving for p, Initial residual = 0.826646, Final residual = 9.87568e-05, No Iterations 3236
[INFO] SolveP: 61507.9 [ms]
time step continuity errors : sum local = 3.18394e-09, global = 5.14796e-22, cumulative = 6.96798e-22
[INFO] ContinuityError: 95.3 [ms]
[INFO] CorrectBoundary: 1.793 [ms]
[INFO] PISOStep: 62929.6 [ms]
[INFO] TimeStep: 215535 [ms]
ExecutionTime = 216.89 s  ClockTime = 230 s

Time = 0.00025

Courant Number mean: 0.0108405 max: 0.43766
[INFO] MatrixAssemblyU: 611.641 [ms]
DILUPBiCGStab:  Solving for Ux, Initial residual = 0.108207, Final residual = 0.0135091, No Iterations 5
DILUPBiCGStab:  Solving for Uy, Initial residual = 0.484691, Final residual = 0.0514979, No Iterations 5
DILUPBiCGStab:  Solving for Uz, Initial residual = 0.995276, Final residual = 0.121844, No Iterations 5
[INFO] MomentumPredictor: 4815.19 [ms]
[INFO] MatrixAssemblyPI: 692.366 [ms]
[INFO] AdjustPhi: 68.42 [ms]
[INFO] ConstrainPressure: 0.002 [ms]
[INFO] MatrixAssemblyPII: 216.244 [ms]
[OGL LOG][Proc: 0]: global_index_init: 6.307 [ms]
[OGL LOG][Proc: 0]p_local_coeffs: call_update: 0 [ms]
[OGL LOG][Proc: 0]p_non_local_coeffs: call_update: 0 [ms]
[OGL LOG][Proc: 0]p: update_local_matrix_data: 145.3 [ms]
[OGL LOG][Proc: 0]p: update_non_local_matrix_data: 1.781 [ms]
[OGL LOG][Proc: 0]p: regenerate_distributed_matrix: 410.146 [ms]
[OGL LOG][Proc: 0]p_matrix: call_update: 411.863 [ms]
[OGL LOG][Proc: 0]p_rhs: call_update: 26.802 [ms]
[OGL LOG][Proc: 0]p: init_precond: 0.034 [ms]
[OGL LOG][StoppingCriterion.H:239] Creating stopping criterion with minIter 1941 frequency 20
[OGL LOG][Proc: 0]p: generate_solver: 0.017 [ms]
[OGL LOG][Proc: 0]p: solve: 56196.6 [ms]
[OGL LOG][Proc: 0]p: copy_x_back: 15.988 [ms]
[OGL LOG][lduLduBase.H:330] 
Statistics:
	Time per iteration: 17555 [mu s]
	Time per residual norm calculation: 5049.000000 [mu s]
	Time per iteration and DOF: 0.274297 [ns]
	Retrieve results bandwidth 2.677000 [GByte/s]
[OGL LOG][Proc: 0]p: solve_multi_gpu: 56659.1 [ms]
nonedpcppGKOCG:  Solving for p, Initial residual = 0.910313, Final residual = 7.97699e-05, No Iterations 3201
[INFO] SolveP: 56853.1 [ms]
time step continuity errors : sum local = 5.86992e-09, global = 8.89429e-22, cumulative = 1.58623e-21
[INFO] ContinuityError: 107.904 [ms]
[INFO] CorrectBoundary: 20.187 [ms]
[INFO] PISOStep: 58234.1 [ms]
[INFO] MatrixAssemblyPI: 675.52 [ms]
[INFO] AdjustPhi: 109.457 [ms]
[INFO] ConstrainPressure: 0.002 [ms]
[INFO] MatrixAssemblyPII: 217.028 [ms]
[OGL LOG][Proc: 0]: global_index_init: 6.205 [ms]
[OGL LOG][Proc: 0]p_local_coeffs: call_update: 0 [ms]
[OGL LOG][Proc: 0]p_non_local_coeffs: call_update: 0 [ms]
[OGL LOG][Proc: 0]p: update_local_matrix_data: 148.253 [ms]
[OGL LOG][Proc: 0]p: update_non_local_matrix_data: 1.858 [ms]
[OGL LOG][Proc: 0]p: regenerate_distributed_matrix: 485.585 [ms]
[OGL LOG][Proc: 0]p_matrix: call_update: 487.29 [ms]
[OGL LOG][Proc: 0]p_rhs: call_update: 19.033 [ms]
[OGL LOG][Proc: 0]p: init_precond: 0.062 [ms]
[OGL LOG][StoppingCriterion.H:239] Creating stopping criterion with minIter 1920 frequency 20
[OGL LOG][Proc: 0]p: generate_solver: 0.024 [ms]
[OGL LOG][Proc: 0]p: solve: 56207.3 [ms]
[OGL LOG][Proc: 0]p: copy_x_back: 14.281 [ms]
[OGL LOG][lduLduBase.H:330] 
Statistics:
	Time per iteration: 17559 [mu s]
	Time per residual norm calculation: 568.000000 [mu s]
	Time per iteration and DOF: 0.274359 [ns]
	Retrieve results bandwidth 2.998000 [GByte/s]
[OGL LOG][Proc: 0]p: solve_multi_gpu: 56735.5 [ms]
nonedpcppGKOCG:  Solving for p, Initial residual = 0.860388, Final residual = 7.42938e-05, No Iterations 3201
[INFO] SolveP: 56923.6 [ms]
time step continuity errors : sum local = 5.569e-09, global = 9.0472e-22, cumulative = 2.49095e-21
[INFO] ContinuityError: 114.234 [ms]
[INFO] CorrectBoundary: 17.159 [ms]
[INFO] PISOStep: 58322.5 [ms]
[INFO] TimeStep: 122090 [ms]
ExecutionTime = 339.03 s  ClockTime = 352 s

Time = 0.000375

Courant Number mean: 0.0169341 max: 0.511148
[INFO] MatrixAssemblyU: 612.506 [ms]
DILUPBiCGStab:  Solving for Ux, Initial residual = 0.0537438, Final residual = 0.00543441, No Iterations 5
DILUPBiCGStab:  Solving for Uy, Initial residual = 0.26188, Final residual = 0.0260064, No Iterations 5
DILUPBiCGStab:  Solving for Uz, Initial residual = 0.874549, Final residual = 0.089418, No Iterations 5
[INFO] MomentumPredictor: 4781.24 [ms]
[INFO] MatrixAssemblyPI: 689.83 [ms]
[INFO] AdjustPhi: 68.485 [ms]
[INFO] ConstrainPressure: 0.002 [ms]
[INFO] MatrixAssemblyPII: 216.818 [ms]
[OGL LOG][Proc: 0]: global_index_init: 6.43 [ms]
[OGL LOG][Proc: 0]p_local_coeffs: call_update: 0 [ms]
[OGL LOG][Proc: 0]p_non_local_coeffs: call_update: 0 [ms]
[OGL LOG][Proc: 0]p: update_local_matrix_data: 147.931 [ms]
[OGL LOG][Proc: 0]p: update_non_local_matrix_data: 1.952 [ms]
[OGL LOG][Proc: 0]p: regenerate_distributed_matrix: 406.853 [ms]
[OGL LOG][Proc: 0]p_matrix: call_update: 408.55 [ms]
[OGL LOG][Proc: 0]p_rhs: call_update: 35.84 [ms]
[OGL LOG][Proc: 0]p: init_precond: 0.052 [ms]
[OGL LOG][StoppingCriterion.H:239] Creating stopping criterion with minIter 1920 frequency 6
[OGL LOG][Proc: 0]p: generate_solver: 0.022 [ms]
[OGL LOG][Proc: 0]p: solve: 33843.7 [ms]
[OGL LOG][Proc: 0]p: copy_x_back: 13.574 [ms]
[OGL LOG][lduLduBase.H:330] 
Statistics:
	Time per iteration: 17617 [mu s]
	Time per residual norm calculation: 4612.000000 [mu s]
	Time per iteration and DOF: 0.275266 [ns]
	Retrieve results bandwidth 3.154000 [GByte/s]
[OGL LOG][Proc: 0]p: solve_multi_gpu: 34309.1 [ms]
nonedpcppGKOCG:  Solving for p, Initial residual = 0.942291, Final residual = 3.86884e-05, No Iterations 1921
[INFO] SolveP: 34495.5 [ms]
time step continuity errors : sum local = 3.75571e-09, global = 6.0043e-22, cumulative = 3.09138e-21
[INFO] ContinuityError: 108.077 [ms]
[INFO] CorrectBoundary: 20.188 [ms]
[INFO] PISOStep: 35843.1 [ms]
[INFO] MatrixAssemblyPI: 789.229 [ms]
[INFO] AdjustPhi: 103.972 [ms]
[INFO] ConstrainPressure: 0.002 [ms]
[INFO] MatrixAssemblyPII: 216.944 [ms]
[OGL LOG][Proc: 0]: global_index_init: 6.263 [ms]
[OGL LOG][Proc: 0]p_local_coeffs: call_update: 0 [ms]
[OGL LOG][Proc: 0]p_non_local_coeffs: call_update: 0 [ms]
[OGL LOG][Proc: 0]p: update_local_matrix_data: 150.143 [ms]
[OGL LOG][Proc: 0]p: update_non_local_matrix_data: 1.558 [ms]
[OGL LOG][Proc: 0]p: regenerate_distributed_matrix: 416.705 [ms]
[OGL LOG][Proc: 0]p_matrix: call_update: 418.388 [ms]
[OGL LOG][Proc: 0]p_rhs: call_update: 26.916 [ms]
[OGL LOG][Proc: 0]p: init_precond: 0.045 [ms]
[OGL LOG][StoppingCriterion.H:239] Creating stopping criterion with minIter 1152 frequency 16
[OGL LOG][Proc: 0]p: generate_solver: 0.022 [ms]
[OGL LOG][Proc: 0]p: solve: 27913.1 [ms]
[OGL LOG][Proc: 0]p: copy_x_back: 12.038 [ms]
[OGL LOG][lduLduBase.H:330] 
Statistics:
	Time per iteration: 18160 [mu s]
	Time per residual norm calculation: 670.000000 [mu s]
	Time per iteration and DOF: 0.283750 [ns]
	Retrieve results bandwidth 3.556000 [GByte/s]
[OGL LOG][Proc: 0]p: solve_multi_gpu: 28371.6 [ms]
nonedpcppGKOCG:  Solving for p, Initial residual = 0.908789, Final residual = 9.41564e-05, No Iterations 1537
[INFO] SolveP: 28560.8 [ms]
time step continuity errors : sum local = 8.58425e-09, global = 1.69578e-22, cumulative = 3.26096e-21
[INFO] ContinuityError: 105.799 [ms]
[INFO] CorrectBoundary: 22.109 [ms]
[INFO] PISOStep: 30080.3 [ms]
[INFO] TimeStep: 71424.7 [ms]
ExecutionTime = 410.49 s  ClockTime = 423 s

Time = 0.0005

Courant Number mean: 0.0205459 max: 0.477552
[INFO] MatrixAssemblyU: 610.623 [ms]
DILUPBiCGStab:  Solving for Ux, Initial residual = 0.0416781, Final residual = 0.00502147, No Iterations 5
DILUPBiCGStab:  Solving for Uy, Initial residual = 0.214024, Final residual = 0.0235814, No Iterations 5
DILUPBiCGStab:  Solving for Uz, Initial residual = 0.780286, Final residual = 0.0652847, No Iterations 5
[INFO] MomentumPredictor: 4772.74 [ms]
[INFO] MatrixAssemblyPI: 688.891 [ms]
[INFO] AdjustPhi: 70.071 [ms]
[INFO] ConstrainPressure: 0.002 [ms]
[INFO] MatrixAssemblyPII: 217.194 [ms]
[OGL LOG][Proc: 0]: global_index_init: 6.358 [ms]
[OGL LOG][Proc: 0]p_local_coeffs: call_update: 0 [ms]
[OGL LOG][Proc: 0]p_non_local_coeffs: call_update: 0 [ms]
[OGL LOG][Proc: 0]p: update_local_matrix_data: 153.304 [ms]
[OGL LOG][Proc: 0]p: update_non_local_matrix_data: 1.766 [ms]
[OGL LOG][Proc: 0]p: regenerate_distributed_matrix: 475.023 [ms]
[OGL LOG][Proc: 0]p_matrix: call_update: 476.656 [ms]
[OGL LOG][Proc: 0]p_rhs: call_update: 26.454 [ms]
[OGL LOG][Proc: 0]p: init_precond: 0.057 [ms]
[OGL LOG][StoppingCriterion.H:239] Creating stopping criterion with minIter 922 frequency 4
[OGL LOG][Proc: 0]p: generate_solver: 0.023 [ms]
[OGL LOG][Proc: 0]p: solve: 26726.1 [ms]
[OGL LOG][Proc: 0]p: copy_x_back: 13.635 [ms]
[OGL LOG][lduLduBase.H:330] 
Statistics:
	Time per iteration: 17664 [mu s]
	Time per residual norm calculation: 633.000000 [mu s]
	Time per iteration and DOF: 0.276000 [ns]
	Retrieve results bandwidth 3.140000 [GByte/s]
[OGL LOG][Proc: 0]p: solve_multi_gpu: 27244 [ms]
nonedpcppGKOCG:  Solving for p, Initial residual = 0.938577, Final residual = 9.97898e-05, No Iterations 1513
[INFO] SolveP: 27436.5 [ms]
time step continuity errors : sum local = 1.15027e-08, global = 6.67354e-22, cumulative = 3.92831e-21
[INFO] ContinuityError: 108.762 [ms]
[INFO] CorrectBoundary: 12.781 [ms]
[INFO] PISOStep: 28785.2 [ms]
[INFO] MatrixAssemblyPI: 680.697 [ms]
[INFO] AdjustPhi: 108.545 [ms]
[INFO] ConstrainPressure: 0.002 [ms]
[INFO] MatrixAssemblyPII: 216.449 [ms]
[OGL LOG][Proc: 0]: global_index_init: 7.142 [ms]
[OGL LOG][Proc: 0]p_local_coeffs: call_update: 0 [ms]
[OGL LOG][Proc: 0]p_non_local_coeffs: call_update: 0 [ms]
[OGL LOG][Proc: 0]p: update_local_matrix_data: 134.571 [ms]
[OGL LOG][Proc: 0]p: update_non_local_matrix_data: 1.683 [ms]
[OGL LOG][Proc: 0]p: regenerate_distributed_matrix: 466.826 [ms]
[OGL LOG][Proc: 0]p_matrix: call_update: 468.466 [ms]
[OGL LOG][Proc: 0]p_rhs: call_update: 31.065 [ms]
[OGL LOG][Proc: 0]p: init_precond: 0.041 [ms]
[OGL LOG][StoppingCriterion.H:239] Creating stopping criterion with minIter 907 frequency 4
[OGL LOG][Proc: 0]p: generate_solver: 0.019 [ms]
[OGL LOG][Proc: 0]p: solve: 27225.1 [ms]
[OGL LOG][Proc: 0]p: copy_x_back: 14.258 [ms]
[OGL LOG][lduLduBase.H:330] 
Statistics:
	Time per iteration: 18041 [mu s]
	Time per residual norm calculation: 697.000000 [mu s]
	Time per iteration and DOF: 0.281891 [ns]
	Retrieve results bandwidth 3.002000 [GByte/s]
[OGL LOG][Proc: 0]p: solve_multi_gpu: 27756.8 [ms]
nonedpcppGKOCG:  Solving for p, Initial residual = 0.880512, Final residual = 9.58889e-05, No Iterations 1509
[INFO] SolveP: 27924.7 [ms]
time step continuity errors : sum local = 1.09326e-08, global = 4.52364e-22, cumulative = 4.38067e-21
[INFO] ContinuityError: 104.506 [ms]
[INFO] CorrectBoundary: 21.031 [ms]
[INFO] PISOStep: 29301.5 [ms]
[INFO] TimeStep: 63554.5 [ms]
ExecutionTime = 474.08 s  ClockTime = 487 s

Time = 0.000625

Courant Number mean: 0.023628 max: 0.555417
[INFO] MatrixAssemblyU: 606.423 [ms]
DILUPBiCGStab:  Solving for Ux, Initial residual = 0.0377234, Final residual = 0.0045347, No Iterations 5
DILUPBiCGStab:  Solving for Uy, Initial residual = 0.18505, Final residual = 0.0192812, No Iterations 5
DILUPBiCGStab:  Solving for Uz, Initial residual = 0.750466, Final residual = 0.0556731, No Iterations 5
[INFO] MomentumPredictor: 4777.84 [ms]
[INFO] MatrixAssemblyPI: 686.392 [ms]
[INFO] AdjustPhi: 70.247 [ms]
[INFO] ConstrainPressure: 0.002 [ms]
[INFO] MatrixAssemblyPII: 216.19 [ms]
[OGL LOG][Proc: 0]: global_index_init: 6.373 [ms]
[OGL LOG][Proc: 0]p_local_coeffs: call_update: 0 [ms]
[OGL LOG][Proc: 0]p_non_local_coeffs: call_update: 0 [ms]
[OGL LOG][Proc: 0]p: update_local_matrix_data: 135.422 [ms]
[OGL LOG][Proc: 0]p: update_non_local_matrix_data: 1.552 [ms]
[OGL LOG][Proc: 0]p: regenerate_distributed_matrix: 459.797 [ms]
[OGL LOG][Proc: 0]p_matrix: call_update: 461.514 [ms]
[OGL LOG][Proc: 0]p_rhs: call_update: 36.921 [ms]
[OGL LOG][Proc: 0]p: init_precond: 0.036 [ms]
[OGL LOG][StoppingCriterion.H:239] Creating stopping criterion with minIter 905 frequency 4
[OGL LOG][Proc: 0]p: generate_solver: 0.019 [ms]
[OGL LOG][Proc: 0]p: solve: 54977 [ms]
[OGL LOG][Proc: 0]p: copy_x_back: 15.161 [ms]
[OGL LOG][lduLduBase.H:330] 
Statistics:
	Time per iteration: 17913 [mu s]
	Time per residual norm calculation: 5165.000000 [mu s]
	Time per iteration and DOF: 0.279891 [ns]
	Retrieve results bandwidth 2.824000 [GByte/s]
[OGL LOG][Proc: 0]p: solve_multi_gpu: 55509.2 [ms]
nonedpcppGKOCG:  Solving for p, Initial residual = 0.954543, Final residual = 9.62282e-05, No Iterations 3069
[INFO] SolveP: 55683.9 [ms]
time step continuity errors : sum local = 1.22037e-08, global = 4.96877e-22, cumulative = 4.87755e-21
[INFO] ContinuityError: 95.059 [ms]
[INFO] CorrectBoundary: 17.332 [ms]
[INFO] PISOStep: 57056.7 [ms]
[INFO] MatrixAssemblyPI: 731.012 [ms]
[INFO] AdjustPhi: 81.873 [ms]
[INFO] ConstrainPressure: 0.002 [ms]
[INFO] MatrixAssemblyPII: 223.637 [ms]
[OGL LOG][Proc: 0]: global_index_init: 7.295 [ms]
[OGL LOG][Proc: 0]p_local_coeffs: call_update: 0 [ms]
[OGL LOG][Proc: 0]p_non_local_coeffs: call_update: 0 [ms]
[OGL LOG][Proc: 0]p: update_local_matrix_data: 149.201 [ms]
[OGL LOG][Proc: 0]p: update_non_local_matrix_data: 1.533 [ms]
[OGL LOG][Proc: 0]p: regenerate_distributed_matrix: 417.007 [ms]
[OGL LOG][Proc: 0]p_matrix: call_update: 418.745 [ms]
[OGL LOG][Proc: 0]p_rhs: call_update: 23.023 [ms]
[OGL LOG][Proc: 0]p: init_precond: 0.064 [ms]
[OGL LOG][StoppingCriterion.H:239] Creating stopping criterion with minIter 1841 frequency 20
[OGL LOG][Proc: 0]p: generate_solver: 0.025 [ms]
[OGL LOG][Proc: 0]p: solve: 51964.6 [ms]
[OGL LOG][Proc: 0]p: copy_x_back: 15.571 [ms]
[OGL LOG][lduLduBase.H:330] 
Statistics:
	Time per iteration: 17789 [mu s]
	Time per residual norm calculation: 655.000000 [mu s]
	Time per iteration and DOF: 0.277953 [ns]
	Retrieve results bandwidth 2.749000 [GByte/s]
[OGL LOG][Proc: 0]p: solve_multi_gpu: 52423.1 [ms]
nonedpcppGKOCG:  Solving for p, Initial residual = 0.915026, Final residual = 9.66808e-05, No Iterations 2921
[INFO] SolveP: 52612.5 [ms]
time step continuity errors : sum local = 1.21902e-08, global = 1.1702e-21, cumulative = 6.04775e-21
[INFO] ContinuityError: 94.169 [ms]
[INFO] CorrectBoundary: 16.404 [ms]
[INFO] PISOStep: 54059.5 [ms]
[INFO] TimeStep: 116594 [ms]
ExecutionTime = 590.73 s  ClockTime = 603 s

Time = 0.00075

Courant Number mean: 0.0259747 max: 0.483456
[INFO] MatrixAssemblyU: 639.367 [ms]
DILUPBiCGStab:  Solving for Ux, Initial residual = 0.0355361, Final residual = 0.00422672, No Iterations 5
DILUPBiCGStab:  Solving for Uy, Initial residual = 0.171877, Final residual = 0.0163612, No Iterations 5
DILUPBiCGStab:  Solving for Uz, Initial residual = 0.696659, Final residual = 0.0468602, No Iterations 5
[INFO] MomentumPredictor: 4777 [ms]
[INFO] MatrixAssemblyPI: 689.301 [ms]
[INFO] AdjustPhi: 69.551 [ms]
[INFO] ConstrainPressure: 0.002 [ms]
[INFO] MatrixAssemblyPII: 216.384 [ms]
[OGL LOG][Proc: 0]: global_index_init: 6.556 [ms]
[OGL LOG][Proc: 0]p_local_coeffs: call_update: 0 [ms]
[OGL LOG][Proc: 0]p_non_local_coeffs: call_update: 0 [ms]
[OGL LOG][Proc: 0]p: update_local_matrix_data: 143.02 [ms]
[OGL LOG][Proc: 0]p: update_non_local_matrix_data: 1.638 [ms]
[OGL LOG][Proc: 0]p: regenerate_distributed_matrix: 425.055 [ms]
[OGL LOG][Proc: 0]p_matrix: call_update: 429.706 [ms]
[OGL LOG][Proc: 0]p_rhs: call_update: 12.087 [ms]
[OGL LOG][Proc: 0]p: init_precond: 0.049 [ms]
[OGL LOG][StoppingCriterion.H:239] Creating stopping criterion with minIter 1752 frequency 6
[OGL LOG][Proc: 0]p: generate_solver: 0.023 [ms]
[OGL LOG][Proc: 0]p: solve: 55698.8 [ms]
[OGL LOG][Proc: 0]p: copy_x_back: 15.772 [ms]
[OGL LOG][lduLduBase.H:330] 
Statistics:
	Time per iteration: 18019 [mu s]
	Time per residual norm calculation: 564.000000 [mu s]
	Time per iteration and DOF: 0.281547 [ns]
	Retrieve results bandwidth 2.714000 [GByte/s]
[OGL LOG][Proc: 0]p: solve_multi_gpu: 56168.1 [ms]
nonedpcppGKOCG:  Solving for p, Initial residual = 0.951392, Final residual = 9.99364e-05, No Iterations 3091
[INFO] SolveP: 56354.3 [ms]
time step continuity errors : sum local = 1.45997e-08, global = 6.36231e-22, cumulative = 6.68398e-21
[INFO] ContinuityError: 98.696 [ms]
[INFO] CorrectBoundary: 17.444 [ms]
[INFO] PISOStep: 57733 [ms]
[INFO] MatrixAssemblyPI: 754.404 [ms]
[INFO] AdjustPhi: 44.704 [ms]
[INFO] ConstrainPressure: 0.003 [ms]
[INFO] MatrixAssemblyPII: 226.621 [ms]
[OGL LOG][Proc: 0]: global_index_init: 6.356 [ms]
[OGL LOG][Proc: 0]p_local_coeffs: call_update: 0 [ms]
[OGL LOG][Proc: 0]p_non_local_coeffs: call_update: 0 [ms]
[OGL LOG][Proc: 0]p: update_local_matrix_data: 145.22 [ms]
[OGL LOG][Proc: 0]p: update_non_local_matrix_data: 1.709 [ms]
[OGL LOG][Proc: 0]p: regenerate_distributed_matrix: 426.34 [ms]
[OGL LOG][Proc: 0]p_matrix: call_update: 428.055 [ms]
[OGL LOG][Proc: 0]p_rhs: call_update: 14.623 [ms]
[OGL LOG][Proc: 0]p: init_precond: 0.041 [ms]
[OGL LOG][StoppingCriterion.H:239] Creating stopping criterion with minIter 1854 frequency 6
[OGL LOG][Proc: 0]p: generate_solver: 0.018 [ms]
[OGL LOG][Proc: 0]p: solve: 54386.5 [ms]
[OGL LOG][Proc: 0]p: copy_x_back: 14.158 [ms]
[OGL LOG][lduLduBase.H:330] 
Statistics:
	Time per iteration: 17595 [mu s]
	Time per residual norm calculation: 661.000000 [mu s]
	Time per iteration and DOF: 0.274922 [ns]
	Retrieve results bandwidth 3.024000 [GByte/s]
[OGL LOG][Proc: 0]p: solve_multi_gpu: 54851.4 [ms]
nonedpcppGKOCG:  Solving for p, Initial residual = 0.891282, Final residual = 9.43001e-05, No Iterations 3091
[INFO] SolveP: 55036.4 [ms]
time step continuity errors : sum local = 1.39907e-08, global = 9.03023e-22, cumulative = 7.58701e-21
[INFO] ContinuityError: 107.873 [ms]
[INFO] CorrectBoundary: 38.748 [ms]
[INFO] PISOStep: 56455.9 [ms]
[INFO] TimeStep: 119693 [ms]
ExecutionTime = 710.48 s  ClockTime = 723 s

Time = 0.000875

Courant Number mean: 0.0281921 max: 0.611222
[INFO] MatrixAssemblyU: 608.003 [ms]
DILUPBiCGStab:  Solving for Ux, Initial residual = 0.0351782, Final residual = 0.0039614, No Iterations 5
DILUPBiCGStab:  Solving for Uy, Initial residual = 0.176918, Final residual = 0.015581, No Iterations 5
DILUPBiCGStab:  Solving for Uz, Initial residual = 0.692106, Final residual = 0.0413644, No Iterations 5
[INFO] MomentumPredictor: 4968.9 [ms]
[INFO] MatrixAssemblyPI: 687.7 [ms]
[INFO] AdjustPhi: 73.201 [ms]
[INFO] ConstrainPressure: 0.002 [ms]
[INFO] MatrixAssemblyPII: 216.317 [ms]
[OGL LOG][Proc: 0]: global_index_init: 6.351 [ms]
[OGL LOG][Proc: 0]p_local_coeffs: call_update: 0 [ms]
[OGL LOG][Proc: 0]p_non_local_coeffs: call_update: 0 [ms]
[OGL LOG][Proc: 0]p: update_local_matrix_data: 136.243 [ms]
[OGL LOG][Proc: 0]p: update_non_local_matrix_data: 1.695 [ms]
[OGL LOG][Proc: 0]p: regenerate_distributed_matrix: 424.51 [ms]
[OGL LOG][Proc: 0]p_matrix: call_update: 426.76 [ms]
[OGL LOG][Proc: 0]p_rhs: call_update: 13.281 [ms]
[OGL LOG][Proc: 0]p: init_precond: 0.055 [ms]
[OGL LOG][StoppingCriterion.H:239] Creating stopping criterion with minIter 1854 frequency 6
[OGL LOG][Proc: 0]p: generate_solver: 0.027 [ms]
[OGL LOG][Proc: 0]p: solve: 53065.6 [ms]
[OGL LOG][Proc: 0]p: copy_x_back: 14.666 [ms]
[OGL LOG][lduLduBase.H:330] 
Statistics:
	Time per iteration: 17201 [mu s]
	Time per residual norm calculation: 564.000000 [mu s]
	Time per iteration and DOF: 0.268766 [ns]
	Retrieve results bandwidth 2.919000 [GByte/s]
[OGL LOG][Proc: 0]p: solve_multi_gpu: 53539.1 [ms]
nonedpcppGKOCG:  Solving for p, Initial residual = 0.962254, Final residual = 9.63564e-05, No Iterations 3085
[INFO] SolveP: 53716.4 [ms]
time step continuity errors : sum local = 1.59109e-08, global = 2.00423e-22, cumulative = 7.78743e-21
[INFO] ContinuityError: 111.268 [ms]
[INFO] CorrectBoundary: 21.996 [ms]
[INFO] PISOStep: 55098.6 [ms]
[INFO] MatrixAssemblyPI: 695.368 [ms]
[INFO] AdjustPhi: 88.92 [ms]
[INFO] ConstrainPressure: 0.002 [ms]
[INFO] MatrixAssemblyPII: 217.002 [ms]
[OGL LOG][Proc: 0]: global_index_init: 6.475 [ms]
[OGL LOG][Proc: 0]p_local_coeffs: call_update: 0 [ms]
[OGL LOG][Proc: 0]p_non_local_coeffs: call_update: 0 [ms]
[OGL LOG][Proc: 0]p: update_local_matrix_data: 135.345 [ms]
[OGL LOG][Proc: 0]p: update_non_local_matrix_data: 1.839 [ms]
[OGL LOG][Proc: 0]p: regenerate_distributed_matrix: 436.317 [ms]
[OGL LOG][Proc: 0]p_matrix: call_update: 438.286 [ms]
[OGL LOG][Proc: 0]p_rhs: call_update: 8.539 [ms]
[OGL LOG][Proc: 0]p: init_precond: 0.059 [ms]
[OGL LOG][StoppingCriterion.H:239] Creating stopping criterion with minIter 1851 frequency 6
[OGL LOG][Proc: 0]p: generate_solver: 0.023 [ms]
[OGL LOG][Proc: 0]p: solve: 53463.3 [ms]
[OGL LOG][Proc: 0]p: copy_x_back: 13.528 [ms]
[OGL LOG][lduLduBase.H:330] 
Statistics:
	Time per iteration: 17363 [mu s]
	Time per residual norm calculation: 664.000000 [mu s]
	Time per iteration and DOF: 0.271297 [ns]
	Retrieve results bandwidth 3.164000 [GByte/s]
[OGL LOG][Proc: 0]p: solve_multi_gpu: 53942.3 [ms]
nonedpcppGKOCG:  Solving for p, Initial residual = 0.917331, Final residual = 9.78253e-05, No Iterations 3079
[INFO] SolveP: 54117.2 [ms]
time step continuity errors : sum local = 1.60965e-08, global = 2.20263e-22, cumulative = 8.00769e-21
[INFO] ContinuityError: 112.067 [ms]
[INFO] CorrectBoundary: 17.631 [ms]
[INFO] PISOStep: 55501.7 [ms]
[INFO] TimeStep: 116264 [ms]
ExecutionTime = 826.81 s  ClockTime = 839 s

Time = 0.001

Courant Number mean: 0.029957 max: 0.490861
[INFO] MatrixAssemblyU: 608.97 [ms]
DILUPBiCGStab:  Solving for Ux, Initial residual = 0.0363108, Final residual = 0.0038146, No Iterations 5
DILUPBiCGStab:  Solving for Uy, Initial residual = 0.170503, Final residual = 0.0134297, No Iterations 5
DILUPBiCGStab:  Solving for Uz, Initial residual = 0.678232, Final residual = 0.0383898, No Iterations 5
[INFO] MomentumPredictor: 4844.61 [ms]
[INFO] MatrixAssemblyPI: 690.405 [ms]
[INFO] AdjustPhi: 69.397 [ms]
[INFO] ConstrainPressure: 0.003 [ms]
[INFO] MatrixAssemblyPII: 216.833 [ms]
[OGL LOG][Proc: 0]: global_index_init: 6.564 [ms]
[OGL LOG][Proc: 0]p_local_coeffs: call_update: 0 [ms]
[OGL LOG][Proc: 0]p_non_local_coeffs: call_update: 0 [ms]
[OGL LOG][Proc: 0]p: update_local_matrix_data: 142.832 [ms]
[OGL LOG][Proc: 0]p: update_non_local_matrix_data: 1.675 [ms]
[OGL LOG][Proc: 0]p: regenerate_distributed_matrix: 429.961 [ms]
[OGL LOG][Proc: 0]p_matrix: call_update: 431.966 [ms]
[OGL LOG][Proc: 0]p_rhs: call_update: 13.35 [ms]
[OGL LOG][Proc: 0]p: init_precond: 0.061 [ms]
[OGL LOG][StoppingCriterion.H:239] Creating stopping criterion with minIter 1847 frequency 6
[OGL LOG][Proc: 0]p: generate_solver: 0.023 [ms]
[OGL LOG][Proc: 0]p: solve: 54761.3 [ms]
[OGL LOG][Proc: 0]p: copy_x_back: 14.605 [ms]
[OGL LOG][lduLduBase.H:330] 
Statistics:
	Time per iteration: 17750 [mu s]
	Time per residual norm calculation: 5060.000000 [mu s]
	Time per iteration and DOF: 0.277344 [ns]
	Retrieve results bandwidth 2.931000 [GByte/s]
[OGL LOG][Proc: 0]p: solve_multi_gpu: 55230.4 [ms]
nonedpcppGKOCG:  Solving for p, Initial residual = 0.960098, Final residual = 9.68364e-05, No Iterations 3085
[INFO] SolveP: 55413.1 [ms]
time step continuity errors : sum local = 1.83411e-08, global = 3.48954e-22, cumulative = 8.35665e-21
[INFO] ContinuityError: 94.948 [ms]
[INFO] CorrectBoundary: 17.05 [ms]
[INFO] PISOStep: 56788.6 [ms]
[INFO] MatrixAssemblyPI: 730.667 [ms]
[INFO] AdjustPhi: 82.938 [ms]
[INFO] ConstrainPressure: 0.002 [ms]
[INFO] MatrixAssemblyPII: 235.494 [ms]
[OGL LOG][Proc: 0]: global_index_init: 6.557 [ms]
[OGL LOG][Proc: 0]p_local_coeffs: call_update: 0 [ms]
[OGL LOG][Proc: 0]p_non_local_coeffs: call_update: 0 [ms]
[OGL LOG][Proc: 0]p: update_local_matrix_data: 144.94 [ms]
[OGL LOG][Proc: 0]p: update_non_local_matrix_data: 1.701 [ms]
[OGL LOG][Proc: 0]p: regenerate_distributed_matrix: 429.575 [ms]
[OGL LOG][Proc: 0]p_matrix: call_update: 431.154 [ms]
[OGL LOG][Proc: 0]p_rhs: call_update: 11.672 [ms]
[OGL LOG][Proc: 0]p: init_precond: 0.042 [ms]
[OGL LOG][StoppingCriterion.H:239] Creating stopping criterion with minIter 1851 frequency 20
[OGL LOG][Proc: 0]p: generate_solver: 0.021 [ms]
[OGL LOG][Proc: 0]p: solve: 54691.7 [ms]
[OGL LOG][Proc: 0]p: copy_x_back: 14.62 [ms]
[OGL LOG][lduLduBase.H:330] 
Statistics:
	Time per iteration: 17751 [mu s]
	Time per residual norm calculation: 648.000000 [mu s]
	Time per iteration and DOF: 0.277359 [ns]
	Retrieve results bandwidth 2.928000 [GByte/s]
[OGL LOG][Proc: 0]p: solve_multi_gpu: 55156 [ms]
nonedpcppGKOCG:  Solving for p, Initial residual = 0.898021, Final residual = 9.67569e-05, No Iterations 3081
[INFO] SolveP: 55341.8 [ms]
time step continuity errors : sum local = 1.85929e-08, global = 7.99056e-22, cumulative = 9.1557e-21
[INFO] ContinuityError: 96.04 [ms]
[INFO] CorrectBoundary: 17.654 [ms]
[INFO] PISOStep: 56794 [ms]
[INFO] TimeStep: 119140 [ms]
ExecutionTime = 946.01 s  ClockTime = 958 s

Time = 0.001125

Courant Number mean: 0.0317822 max: 0.694712
[INFO] MatrixAssemblyU: 640.744 [ms]
DILUPBiCGStab:  Solving for Ux, Initial residual = 0.0375795, Final residual = 0.00360387, No Iterations 5
DILUPBiCGStab:  Solving for Uy, Initial residual = 0.187403, Final residual = 0.0138975, No Iterations 5
DILUPBiCGStab:  Solving for Uz, Initial residual = 0.689803, Final residual = 0.036338, No Iterations 5
[INFO] MomentumPredictor: 4870.57 [ms]
[INFO] MatrixAssemblyPI: 686.771 [ms]
[INFO] AdjustPhi: 72.659 [ms]
[INFO] ConstrainPressure: 0.002 [ms]
[INFO] MatrixAssemblyPII: 216.564 [ms]
[OGL LOG][Proc: 0]: global_index_init: 6.212 [ms]
[OGL LOG][Proc: 0]p_local_coeffs: call_update: 0 [ms]
[OGL LOG][Proc: 0]p_non_local_coeffs: call_update: 0 [ms]
[OGL LOG][Proc: 0]p: update_local_matrix_data: 151.584 [ms]
[OGL LOG][Proc: 0]p: update_non_local_matrix_data: 1.82 [ms]
[OGL LOG][Proc: 0]p: regenerate_distributed_matrix: 422.437 [ms]
[OGL LOG][Proc: 0]p_matrix: call_update: 424.196 [ms]
[OGL LOG][Proc: 0]p_rhs: call_update: 17.605 [ms]
[OGL LOG][Proc: 0]p: init_precond: 0.058 [ms]
[OGL LOG][StoppingCriterion.H:239] Creating stopping criterion with minIter 1848 frequency 6
[OGL LOG][Proc: 0]p: generate_solver: 0.025 [ms]
[OGL LOG][Proc: 0]p: solve: 52765.7 [ms]
[OGL LOG][Proc: 0]p: copy_x_back: 13.756 [ms]
[OGL LOG][lduLduBase.H:330] 
Statistics:
	Time per iteration: 17137 [mu s]
	Time per residual norm calculation: 704.000000 [mu s]
	Time per iteration and DOF: 0.267766 [ns]
	Retrieve results bandwidth 3.112000 [GByte/s]
[OGL LOG][Proc: 0]p: solve_multi_gpu: 53225 [ms]
nonedpcppGKOCG:  Solving for p, Initial residual = 0.96789, Final residual = 9.49132e-05, No Iterations 3079
[INFO] SolveP: 53416.7 [ms]
time step continuity errors : sum local = 2.05697e-08, global = 7.19544e-22, cumulative = 9.87525e-21
[INFO] ContinuityError: 101.825 [ms]
[INFO] CorrectBoundary: 21.875 [ms]
[INFO] PISOStep: 54787.1 [ms]
[INFO] MatrixAssemblyPI: 676 [ms]
[INFO] AdjustPhi: 69.684 [ms]
[INFO] ConstrainPressure: 0.002 [ms]
[INFO] MatrixAssemblyPII: 217.088 [ms]
[OGL LOG][Proc: 0]: global_index_init: 6.542 [ms]
[OGL LOG][Proc: 0]p_local_coeffs: call_update: 0 [ms]
[OGL LOG][Proc: 0]p_non_local_coeffs: call_update: 0 [ms]
[OGL LOG][Proc: 0]p: update_local_matrix_data: 140.658 [ms]
[OGL LOG][Proc: 0]p: update_non_local_matrix_data: 1.637 [ms]
[OGL LOG][Proc: 0]p: regenerate_distributed_matrix: 484.1 [ms]
[OGL LOG][Proc: 0]p_matrix: call_update: 486.217 [ms]
[OGL LOG][Proc: 0]p_rhs: call_update: 21.712 [ms]
[OGL LOG][Proc: 0]p: init_precond: 0.064 [ms]
[OGL LOG][StoppingCriterion.H:239] Creating stopping criterion with minIter 1847 frequency 7
[OGL LOG][Proc: 0]p: generate_solver: 0.025 [ms]
[OGL LOG][Proc: 0]p: solve: 52779.6 [ms]
[OGL LOG][Proc: 0]p: copy_x_back: 16.059 [ms]
[OGL LOG][lduLduBase.H:330] 
Statistics:
	Time per iteration: 17169 [mu s]
	Time per residual norm calculation: 559.000000 [mu s]
	Time per iteration and DOF: 0.268266 [ns]
	Retrieve results bandwidth 2.666000 [GByte/s]
[OGL LOG][Proc: 0]p: solve_multi_gpu: 53317.1 [ms]
nonedpcppGKOCG:  Solving for p, Initial residual = 0.918381, Final residual = 9.55541e-05, No Iterations 3074
[INFO] SolveP: 53501.1 [ms]
time step continuity errors : sum local = 2.06833e-08, global = 6.91678e-22, cumulative = 1.05669e-20
[INFO] ContinuityError: 95.687 [ms]
[INFO] CorrectBoundary: 21.053 [ms]
[INFO] PISOStep: 54865.5 [ms]
[INFO] TimeStep: 115249 [ms]
ExecutionTime = 1061.32 s  ClockTime = 1074 s

Time = 0.00125

Courant Number mean: 0.0332098 max: 0.506374
[INFO] MatrixAssemblyU: 610.789 [ms]
DILUPBiCGStab:  Solving for Ux, Initial residual = 0.0410029, Final residual = 0.00366678, No Iterations 5
DILUPBiCGStab:  Solving for Uy, Initial residual = 0.186223, Final residual = 0.0122778, No Iterations 5
DILUPBiCGStab:  Solving for Uz, Initial residual = 0.691063, Final residual = 0.0351654, No Iterations 5
[INFO] MomentumPredictor: 4884.39 [ms]
[INFO] MatrixAssemblyPI: 688.046 [ms]
[INFO] AdjustPhi: 73.854 [ms]
[INFO] ConstrainPressure: 0.002 [ms]
[INFO] MatrixAssemblyPII: 217.925 [ms]
[OGL LOG][Proc: 0]: global_index_init: 6.693 [ms]
[OGL LOG][Proc: 0]p_local_coeffs: call_update: 0 [ms]
[OGL LOG][Proc: 0]p_non_local_coeffs: call_update: 0 [ms]
[OGL LOG][Proc: 0]p: update_local_matrix_data: 149.821 [ms]
[OGL LOG][Proc: 0]p: update_non_local_matrix_data: 1.788 [ms]
[OGL LOG][Proc: 0]p: regenerate_distributed_matrix: 436.445 [ms]
[OGL LOG][Proc: 0]p_matrix: call_update: 438.041 [ms]
[OGL LOG][Proc: 0]p_rhs: call_update: 7.859 [ms]
[OGL LOG][Proc: 0]p: init_precond: 0.067 [ms]
[OGL LOG][StoppingCriterion.H:239] Creating stopping criterion with minIter 1844 frequency 6
[OGL LOG][Proc: 0]p: generate_solver: 0.024 [ms]
[OGL LOG][Proc: 0]p: solve: 54097.9 [ms]
[OGL LOG][Proc: 0]p: copy_x_back: 13.967 [ms]
[OGL LOG][lduLduBase.H:330] 
Statistics:
	Time per iteration: 17604 [mu s]
	Time per residual norm calculation: 590.000000 [mu s]
	Time per iteration and DOF: 0.275062 [ns]
	Retrieve results bandwidth 3.065000 [GByte/s]
[OGL LOG][Proc: 0]p: solve_multi_gpu: 54562.2 [ms]
nonedpcppGKOCG:  Solving for p, Initial residual = 0.967143, Final residual = 9.89007e-05, No Iterations 3073
[INFO] SolveP: 54752.2 [ms]
time step continuity errors : sum local = 2.49479e-08, global = 7.2368e-22, cumulative = 1.12906e-20
[INFO] ContinuityError: 107.899 [ms]
[INFO] CorrectBoundary: 20.199 [ms]
[INFO] PISOStep: 56131.8 [ms]
[INFO] MatrixAssemblyPI: 693.313 [ms]
[INFO] AdjustPhi: 119.607 [ms]
[INFO] ConstrainPressure: 0.002 [ms]
[INFO] MatrixAssemblyPII: 223.159 [ms]
[OGL LOG][Proc: 0]: global_index_init: 6.87 [ms]
[OGL LOG][Proc: 0]p_local_coeffs: call_update: 0 [ms]
[OGL LOG][Proc: 0]p_non_local_coeffs: call_update: 0 [ms]
[OGL LOG][Proc: 0]p: update_local_matrix_data: 147.454 [ms]
[OGL LOG][Proc: 0]p: update_non_local_matrix_data: 1.83 [ms]
[OGL LOG][Proc: 0]p: regenerate_distributed_matrix: 422.5 [ms]
[OGL LOG][Proc: 0]p_matrix: call_update: 426.749 [ms]
[OGL LOG][Proc: 0]p_rhs: call_update: 14.152 [ms]
[OGL LOG][Proc: 0]p: init_precond: 0.043 [ms]
[OGL LOG][StoppingCriterion.H:239] Creating stopping criterion with minIter 1843 frequency 6
[OGL LOG][Proc: 0]p: generate_solver: 0.02 [ms]
[OGL LOG][Proc: 0]p: solve: 54661.6 [ms]
[OGL LOG][Proc: 0]p: copy_x_back: 14.047 [ms]
[OGL LOG][lduLduBase.H:330] 
Statistics:
	Time per iteration: 17787 [mu s]
	Time per residual norm calculation: 563.000000 [mu s]
	Time per iteration and DOF: 0.277922 [ns]
	Retrieve results bandwidth 3.048000 [GByte/s]
[OGL LOG][Proc: 0]p: solve_multi_gpu: 55122.9 [ms]
nonedpcppGKOCG:  Solving for p, Initial residual = 0.903545, Final residual = 9.31698e-05, No Iterations 3073
[INFO] SolveP: 55311 [ms]
time step continuity errors : sum local = 2.3816e-08, global = 1.08035e-21, cumulative = 1.2371e-20
[INFO] ContinuityError: 108.46 [ms]
[INFO] CorrectBoundary: 20.971 [ms]
[INFO] PISOStep: 56760.9 [ms]
[INFO] TimeStep: 118473 [ms]
ExecutionTime = 1179.85 s  ClockTime = 1192 s

Time = 0.001375

Courant Number mean: 0.034828 max: 0.825174
[INFO] MatrixAssemblyU: 607.836 [ms]
DILUPBiCGStab:  Solving for Ux, Initial residual = 0.0437902, Final residual = 0.00351167, No Iterations 5
DILUPBiCGStab:  Solving for Uy, Initial residual = 0.210273, Final residual = 0.0132944, No Iterations 5
DILUPBiCGStab:  Solving for Uz, Initial residual = 0.706517, Final residual = 0.0346571, No Iterations 5
[INFO] MomentumPredictor: 4951.14 [ms]
[INFO] MatrixAssemblyPI: 690.412 [ms]
[INFO] AdjustPhi: 87.177 [ms]
[INFO] ConstrainPressure: 0.002 [ms]
[INFO] MatrixAssemblyPII: 216.729 [ms]
[OGL LOG][Proc: 0]: global_index_init: 6.373 [ms]
[OGL LOG][Proc: 0]p_local_coeffs: call_update: 0 [ms]
[OGL LOG][Proc: 0]p_non_local_coeffs: call_update: 0 [ms]
[OGL LOG][Proc: 0]p: update_local_matrix_data: 148.16 [ms]
[OGL LOG][Proc: 0]p: update_non_local_matrix_data: 1.685 [ms]
[OGL LOG][Proc: 0]p: regenerate_distributed_matrix: 419.802 [ms]
[OGL LOG][Proc: 0]p_matrix: call_update: 421.431 [ms]
[OGL LOG][Proc: 0]p_rhs: call_update: 17.476 [ms]
[OGL LOG][Proc: 0]p: init_precond: 0.057 [ms]
[OGL LOG][StoppingCriterion.H:239] Creating stopping criterion with minIter 1843 frequency 6
[OGL LOG][Proc: 0]p: generate_solver: 0.025 [ms]
[OGL LOG][Proc: 0]p: solve: 54586.5 [ms]
[OGL LOG][Proc: 0]p: copy_x_back: 14.463 [ms]
[OGL LOG][lduLduBase.H:330] 
Statistics:
	Time per iteration: 17763 [mu s]
	Time per residual norm calculation: 659.000000 [mu s]
	Time per iteration and DOF: 0.277547 [ns]
	Retrieve results bandwidth 2.960000 [GByte/s]
[OGL LOG][Proc: 0]p: solve_multi_gpu: 55045.7 [ms]
nonedpcppGKOCG:  Solving for p, Initial residual = 0.972704, Final residual = 9.8345e-05, No Iterations 3073
[INFO] SolveP: 55233.8 [ms]
time step continuity errors : sum local = 2.88174e-08, global = 7.38465e-22, cumulative = 1.31094e-20
[INFO] ContinuityError: 112.469 [ms]
[INFO] CorrectBoundary: 22.191 [ms]
[INFO] PISOStep: 56633.8 [ms]
[INFO] MatrixAssemblyPI: 693.097 [ms]
[INFO] AdjustPhi: 124.13 [ms]
[INFO] ConstrainPressure: 0.003 [ms]
[INFO] MatrixAssemblyPII: 222.107 [ms]
[OGL LOG][Proc: 0]: global_index_init: 7.61 [ms]
[OGL LOG][Proc: 0]p_local_coeffs: call_update: 0 [ms]
[OGL LOG][Proc: 0]p_non_local_coeffs: call_update: 0 [ms]
[OGL LOG][Proc: 0]p: update_local_matrix_data: 138.651 [ms]
[OGL LOG][Proc: 0]p: update_non_local_matrix_data: 1.746 [ms]
[OGL LOG][Proc: 0]p: regenerate_distributed_matrix: 471.628 [ms]
[OGL LOG][Proc: 0]p_matrix: call_update: 473.228 [ms]
[OGL LOG][Proc: 0]p_rhs: call_update: 22.097 [ms]
[OGL LOG][Proc: 0]p: init_precond: 0.061 [ms]
[OGL LOG][StoppingCriterion.H:239] Creating stopping criterion with minIter 1843 frequency 6
[OGL LOG][Proc: 0]p: generate_solver: 0.02 [ms]
[OGL LOG][Proc: 0]p: solve: 54837.8 [ms]
[OGL LOG][Proc: 0]p: copy_x_back: 14.88 [ms]
[OGL LOG][lduLduBase.H:330] 
Statistics:
	Time per iteration: 17845 [mu s]
	Time per residual norm calculation: 603.000000 [mu s]
	Time per iteration and DOF: 0.278828 [ns]
	Retrieve results bandwidth 2.877000 [GByte/s]
[OGL LOG][Proc: 0]p: solve_multi_gpu: 55363.2 [ms]
nonedpcppGKOCG:  Solving for p, Initial residual = 0.91944, Final residual = 9.35915e-05, No Iterations 3073
[INFO] SolveP: 55542.3 [ms]
time step continuity errors : sum local = 2.74449e-08, global = 1.10105e-21, cumulative = 1.42105e-20
[INFO] ContinuityError: 93.167 [ms]
[INFO] CorrectBoundary: 14.645 [ms]
[INFO] PISOStep: 56984 [ms]
[INFO] TimeStep: 119265 [ms]
ExecutionTime = 1299.18 s  ClockTime = 1311 s

Time = 0.0015

Courant Number mean: 0.0360367 max: 0.598706
[INFO] MatrixAssemblyU: 641.108 [ms]
DILUPBiCGStab:  Solving for Ux, Initial residual = 0.0493968, Final residual = 0.00371277, No Iterations 5
DILUPBiCGStab:  Solving for Uy, Initial residual = 0.214829, Final residual = 0.0122151, No Iterations 5
DILUPBiCGStab:  Solving for Uz, Initial residual = 0.710803, Final residual = 0.0341121, No Iterations 5
[INFO] MomentumPredictor: 4840.64 [ms]
[INFO] MatrixAssemblyPI: 689.098 [ms]
[INFO] AdjustPhi: 72.27 [ms]
[INFO] ConstrainPressure: 0.003 [ms]
[INFO] MatrixAssemblyPII: 216.695 [ms]
[OGL LOG][Proc: 0]: global_index_init: 6.626 [ms]
[OGL LOG][Proc: 0]p_local_coeffs: call_update: 0 [ms]
[OGL LOG][Proc: 0]p_non_local_coeffs: call_update: 0 [ms]
[OGL LOG][Proc: 0]p: update_local_matrix_data: 145.574 [ms]
[OGL LOG][Proc: 0]p: update_non_local_matrix_data: 1.603 [ms]
[OGL LOG][Proc: 0]p: regenerate_distributed_matrix: 452.796 [ms]
[OGL LOG][Proc: 0]p_matrix: call_update: 454.452 [ms]
[OGL LOG][Proc: 0]p_rhs: call_update: 27.674 [ms]
[OGL LOG][Proc: 0]p: init_precond: 0.046 [ms]
[OGL LOG][StoppingCriterion.H:239] Creating stopping criterion with minIter 1843 frequency 6
[OGL LOG][Proc: 0]p: generate_solver: 0.021 [ms]
[OGL LOG][Proc: 0]p: solve: 52870.4 [ms]
[OGL LOG][Proc: 0]p: copy_x_back: 15.521 [ms]
[OGL LOG][lduLduBase.H:330] 
Statistics:
	Time per iteration: 17723 [mu s]
	Time per residual norm calculation: 781.000000 [mu s]
	Time per iteration and DOF: 0.276922 [ns]
	Retrieve results bandwidth 2.758000 [GByte/s]
[OGL LOG][Proc: 0]p: solve_multi_gpu: 53375.3 [ms]
nonedpcppGKOCG:  Solving for p, Initial residual = 0.972925, Final residual = 9.94112e-05, No Iterations 2983
[INFO] SolveP: 53560.8 [ms]
time step continuity errors : sum local = 3.41638e-08, global = 4.12098e-22, cumulative = 1.46226e-20
[INFO] ContinuityError: 103.426 [ms]
[INFO] CorrectBoundary: 17.165 [ms]
[INFO] PISOStep: 54953.2 [ms]
[INFO] MatrixAssemblyPI: 735.784 [ms]
[INFO] AdjustPhi: 42.493 [ms]
[INFO] ConstrainPressure: 0.002 [ms]
[INFO] MatrixAssemblyPII: 235.864 [ms]
[OGL LOG][Proc: 0]: global_index_init: 5.992 [ms]
[OGL LOG][Proc: 0]p_local_coeffs: call_update: 0 [ms]
[OGL LOG][Proc: 0]p_non_local_coeffs: call_update: 0 [ms]
[OGL LOG][Proc: 0]p: update_local_matrix_data: 145.859 [ms]
[OGL LOG][Proc: 0]p: update_non_local_matrix_data: 1.614 [ms]
[OGL LOG][Proc: 0]p: regenerate_distributed_matrix: 419.354 [ms]
[OGL LOG][Proc: 0]p_matrix: call_update: 421.096 [ms]
[OGL LOG][Proc: 0]p_rhs: call_update: 34.079 [ms]
[OGL LOG][Proc: 0]p: init_precond: 0.043 [ms]
[OGL LOG][StoppingCriterion.H:239] Creating stopping criterion with minIter 1789 frequency 7
[OGL LOG][Proc: 0]p: generate_solver: 0.022 [ms]
[OGL LOG][Proc: 0]p: solve: 54330 [ms]
[OGL LOG][Proc: 0]p: copy_x_back: 13.204 [ms]
[OGL LOG][lduLduBase.H:330] 
Statistics:
	Time per iteration: 17714 [mu s]
	Time per residual norm calculation: 570.000000 [mu s]
	Time per iteration and DOF: 0.276781 [ns]
	Retrieve results bandwidth 3.242000 [GByte/s]
[OGL LOG][Proc: 0]p: solve_multi_gpu: 54804.7 [ms]
nonedpcppGKOCG:  Solving for p, Initial residual = 0.908653, Final residual = 9.82077e-05, No Iterations 3067
[INFO] SolveP: 54990.7 [ms]
time step continuity errors : sum local = 3.416e-08, global = 1.52837e-21, cumulative = 1.61509e-20
[INFO] ContinuityError: 106.893 [ms]
[INFO] CorrectBoundary: 21.205 [ms]
[INFO] PISOStep: 56398.8 [ms]
[INFO] TimeStep: 116930 [ms]
ExecutionTime = 1416.18 s  ClockTime = 1428 s

Time = 0.001625

Courant Number mean: 0.0375498 max: 1.14438
[INFO] MatrixAssemblyU: 609.391 [ms]
DILUPBiCGStab:  Solving for Ux, Initial residual = 0.05414, Final residual = 0.0036645, No Iterations 5
DILUPBiCGStab:  Solving for Uy, Initial residual = 0.243673, Final residual = 0.0134554, No Iterations 5
DILUPBiCGStab:  Solving for Uz, Initial residual = 0.723312, Final residual = 0.0338302, No Iterations 5
[INFO] MomentumPredictor: 4972.79 [ms]
[INFO] MatrixAssemblyPI: 687.979 [ms]
[INFO] AdjustPhi: 79.361 [ms]
[INFO] ConstrainPressure: 0.002 [ms]
[INFO] MatrixAssemblyPII: 217.136 [ms]
[OGL LOG][Proc: 0]: global_index_init: 10.702 [ms]
[OGL LOG][Proc: 0]p_local_coeffs: call_update: 0 [ms]
[OGL LOG][Proc: 0]p_non_local_coeffs: call_update: 0 [ms]
[OGL LOG][Proc: 0]p: update_local_matrix_data: 136.209 [ms]
[OGL LOG][Proc: 0]p: update_non_local_matrix_data: 1.631 [ms]
[OGL LOG][Proc: 0]p: regenerate_distributed_matrix: 418.98 [ms]
[OGL LOG][Proc: 0]p_matrix: call_update: 420.645 [ms]
[OGL LOG][Proc: 0]p_rhs: call_update: 26.724 [ms]
[OGL LOG][Proc: 0]p: init_precond: 0.058 [ms]
[OGL LOG][StoppingCriterion.H:239] Creating stopping criterion with minIter 1840 frequency 6
[OGL LOG][Proc: 0]p: generate_solver: 0.023 [ms]
[OGL LOG][Proc: 0]p: solve: 54403.2 [ms]
[OGL LOG][Proc: 0]p: copy_x_back: 14.594 [ms]
[OGL LOG][lduLduBase.H:330] 
Statistics:
	Time per iteration: 17669 [mu s]
	Time per residual norm calculation: 607.000000 [mu s]
	Time per iteration and DOF: 0.276078 [ns]
	Retrieve results bandwidth 2.933000 [GByte/s]
[OGL LOG][Proc: 0]p: solve_multi_gpu: 54883 [ms]
nonedpcppGKOCG:  Solving for p, Initial residual = 0.976555, Final residual = 9.11499e-05, No Iterations 3079
[INFO] SolveP: 55063 [ms]
time step continuity errors : sum local = 3.67085e-08, global = 1.30358e-21, cumulative = 1.74545e-20
[INFO] ContinuityError: 92.631 [ms]
[INFO] CorrectBoundary: 18.224 [ms]
[INFO] PISOStep: 56443.9 [ms]
[INFO] MatrixAssemblyPI: 735.871 [ms]
[INFO] AdjustPhi: 70.201 [ms]
[INFO] ConstrainPressure: 0.002 [ms]
[INFO] MatrixAssemblyPII: 236.076 [ms]
[OGL LOG][Proc: 0]: global_index_init: 6.053 [ms]
[OGL LOG][Proc: 0]p_local_coeffs: call_update: 0 [ms]
[OGL LOG][Proc: 0]p_non_local_coeffs: call_update: 0 [ms]
[OGL LOG][Proc: 0]p: update_local_matrix_data: 148.056 [ms]
[OGL LOG][Proc: 0]p: update_non_local_matrix_data: 1.791 [ms]
[OGL LOG][Proc: 0]p: regenerate_distributed_matrix: 488.3 [ms]
[OGL LOG][Proc: 0]p_matrix: call_update: 489.917 [ms]
[OGL LOG][Proc: 0]p_rhs: call_update: 8.065 [ms]
[OGL LOG][Proc: 0]p: init_precond: 0.061 [ms]
[OGL LOG][StoppingCriterion.H:239] Creating stopping criterion with minIter 1847 frequency 6
[OGL LOG][Proc: 0]p: generate_solver: 0.023 [ms]
[OGL LOG][Proc: 0]p: solve: 54142.8 [ms]
[OGL LOG][Proc: 0]p: copy_x_back: 15.641 [ms]
[OGL LOG][lduLduBase.H:330] 
Statistics:
	Time per iteration: 17618 [mu s]
	Time per residual norm calculation: 589.000000 [mu s]
	Time per iteration and DOF: 0.275281 [ns]
	Retrieve results bandwidth 2.737000 [GByte/s]
[OGL LOG][Proc: 0]p: solve_multi_gpu: 54662 [ms]
nonedpcppGKOCG:  Solving for p, Initial residual = 0.920288, Final residual = 9.51269e-05, No Iterations 3073
[INFO] SolveP: 54863.3 [ms]
time step continuity errors : sum local = 3.84056e-08, global = 9.75504e-22, cumulative = 1.843e-20
[INFO] ContinuityError: 93.659 [ms]
[INFO] CorrectBoundary: 17.763 [ms]
[INFO] PISOStep: 56300.4 [ms]
[INFO] TimeStep: 118412 [ms]
ExecutionTime = 1534.64 s  ClockTime = 1547 s

Time = 0.00175

Courant Number mean: 0.038618 max: 1.02024
[INFO] MatrixAssemblyU: 640.818 [ms]
DILUPBiCGStab:  Solving for Ux, Initial residual = 0.0623433, Final residual = 0.00395941, No Iterations 5
DILUPBiCGStab:  Solving for Uy, Initial residual = 0.254356, Final residual = 0.012896, No Iterations 5
DILUPBiCGStab:  Solving for Uz, Initial residual = 0.728199, Final residual = 0.0335753, No Iterations 5
[INFO] MomentumPredictor: 4893.31 [ms]
[INFO] MatrixAssemblyPI: 686.835 [ms]
[INFO] AdjustPhi: 74.925 [ms]
[INFO] ConstrainPressure: 0.002 [ms]
[INFO] MatrixAssemblyPII: 216.328 [ms]
[OGL LOG][Proc: 0]: global_index_init: 6.874 [ms]
[OGL LOG][Proc: 0]p_local_coeffs: call_update: 0 [ms]
[OGL LOG][Proc: 0]p_non_local_coeffs: call_update: 0 [ms]
[OGL LOG][Proc: 0]p: update_local_matrix_data: 141.867 [ms]
[OGL LOG][Proc: 0]p: update_non_local_matrix_data: 1.667 [ms]
[OGL LOG][Proc: 0]p: regenerate_distributed_matrix: 426.756 [ms]
[OGL LOG][Proc: 0]p_matrix: call_update: 429.237 [ms]
[OGL LOG][Proc: 0]p_rhs: call_update: 12.81 [ms]
[OGL LOG][Proc: 0]p: init_precond: 0.041 [ms]
[OGL LOG][StoppingCriterion.H:239] Creating stopping criterion with minIter 1843 frequency 6
[OGL LOG][Proc: 0]p: generate_solver: 0.022 [ms]
[OGL LOG][Proc: 0]p: solve: 55440.1 [ms]
[OGL LOG][Proc: 0]p: copy_x_back: 14.284 [ms]
[OGL LOG][lduLduBase.H:330] 
Statistics:
	Time per iteration: 18005 [mu s]
	Time per residual norm calculation: 5266.000000 [mu s]
	Time per iteration and DOF: 0.281328 [ns]
	Retrieve results bandwidth 2.997000 [GByte/s]
[OGL LOG][Proc: 0]p: solve_multi_gpu: 55907.8 [ms]
nonedpcppGKOCG:  Solving for p, Initial residual = 0.977136, Final residual = 9.60242e-05, No Iterations 3079
[INFO] SolveP: 56094.2 [ms]
time step continuity errors : sum local = 4.55917e-08, global = 5.94536e-22, cumulative = 1.90246e-20
[INFO] ContinuityError: 107.555 [ms]
[INFO] CorrectBoundary: 21.166 [ms]
[INFO] PISOStep: 57476 [ms]
[INFO] MatrixAssemblyPI: 693.38 [ms]
[INFO] AdjustPhi: 114.746 [ms]
[INFO] ConstrainPressure: 0.002 [ms]
[INFO] MatrixAssemblyPII: 216.94 [ms]
[OGL LOG][Proc: 0]: global_index_init: 7.044 [ms]
[OGL LOG][Proc: 0]p_local_coeffs: call_update: 0 [ms]
[OGL LOG][Proc: 0]p_non_local_coeffs: call_update: 0 [ms]
[OGL LOG][Proc: 0]p: update_local_matrix_data: 133.658 [ms]
[OGL LOG][Proc: 0]p: update_non_local_matrix_data: 1.732 [ms]
[OGL LOG][Proc: 0]p: regenerate_distributed_matrix: 417.545 [ms]
[OGL LOG][Proc: 0]p_matrix: call_update: 419.222 [ms]
[OGL LOG][Proc: 0]p_rhs: call_update: 26.652 [ms]
[OGL LOG][Proc: 0]p: init_precond: 0.042 [ms]
[OGL LOG][StoppingCriterion.H:239] Creating stopping criterion with minIter 1847 frequency 20
[OGL LOG][Proc: 0]p: generate_solver: 0.03 [ms]
[OGL LOG][Proc: 0]p: solve: 55457.3 [ms]
[OGL LOG][Proc: 0]p: copy_x_back: 16.282 [ms]
[OGL LOG][lduLduBase.H:330] 
Statistics:
	Time per iteration: 17999 [mu s]
	Time per residual norm calculation: 567.000000 [mu s]
	Time per iteration and DOF: 0.281234 [ns]
	Retrieve results bandwidth 2.629000 [GByte/s]
[OGL LOG][Proc: 0]p: solve_multi_gpu: 55939.5 [ms]
nonedpcppGKOCG:  Solving for p, Initial residual = 0.912715, Final residual = 8.7645e-05, No Iterations 3081
[INFO] SolveP: 56115.5 [ms]
time step continuity errors : sum local = 4.20742e-08, global = 5.71789e-22, cumulative = 1.95964e-20
[INFO] ContinuityError: 97.399 [ms]
[INFO] CorrectBoundary: 18.966 [ms]
[INFO] PISOStep: 57543.3 [ms]
[INFO] TimeStep: 120636 [ms]
ExecutionTime = 1655.34 s  ClockTime = 1667 s

Time = 0.001875

Courant Number mean: 0.0401019 max: 1.68344
[INFO] MatrixAssemblyU: 642.814 [ms]
DILUPBiCGStab:  Solving for Ux, Initial residual = 0.0694807, Final residual = 0.00405318, No Iterations 5
DILUPBiCGStab:  Solving for Uy, Initial residual = 0.286926, Final residual = 0.0142306, No Iterations 5
DILUPBiCGStab:  Solving for Uz, Initial residual = 0.737324, Final residual = 0.0334604, No Iterations 5
[INFO] MomentumPredictor: 4933.35 [ms]
[INFO] MatrixAssemblyPI: 687.45 [ms]
[INFO] AdjustPhi: 74.313 [ms]
[INFO] ConstrainPressure: 0.002 [ms]
[INFO] MatrixAssemblyPII: 216.46 [ms]
[OGL LOG][Proc: 0]: global_index_init: 6.309 [ms]
[OGL LOG][Proc: 0]p_local_coeffs: call_update: 0 [ms]
[OGL LOG][Proc: 0]p_non_local_coeffs: call_update: 0 [ms]
[OGL LOG][Proc: 0]p: update_local_matrix_data: 145.394 [ms]
[OGL LOG][Proc: 0]p: update_non_local_matrix_data: 1.723 [ms]
[OGL LOG][Proc: 0]p: regenerate_distributed_matrix: 485.217 [ms]
[OGL LOG][Proc: 0]p_matrix: call_update: 486.869 [ms]
[OGL LOG][Proc: 0]p_rhs: call_update: 20.537 [ms]
[OGL LOG][Proc: 0]p: init_precond: 0.057 [ms]
[OGL LOG][StoppingCriterion.H:239] Creating stopping criterion with minIter 1848 frequency 6
[OGL LOG][Proc: 0]p: generate_solver: 0.024 [ms]
[OGL LOG][Proc: 0]p: solve: 52631.5 [ms]
[OGL LOG][Proc: 0]p: copy_x_back: 13.076 [ms]
[OGL LOG][lduLduBase.H:330] 
Statistics:
	Time per iteration: 17786 [mu s]
	Time per residual norm calculation: 775.000000 [mu s]
	Time per iteration and DOF: 0.277906 [ns]
	Retrieve results bandwidth 3.274000 [GByte/s]
[OGL LOG][Proc: 0]p: solve_multi_gpu: 53160.7 [ms]
nonedpcppGKOCG:  Solving for p, Initial residual = 0.979273, Final residual = 9.26403e-05, No Iterations 2959
[INFO] SolveP: 53345.9 [ms]
time step continuity errors : sum local = 5.19009e-08, global = 7.882e-22, cumulative = 2.03846e-20
[INFO] ContinuityError: 104.639 [ms]
[INFO] CorrectBoundary: 21.108 [ms]
[INFO] PISOStep: 54726.8 [ms]
[INFO] MatrixAssemblyPI: 694.712 [ms]
[INFO] AdjustPhi: 89.735 [ms]
[INFO] ConstrainPressure: 0.002 [ms]
[INFO] MatrixAssemblyPII: 219.127 [ms]
[OGL LOG][Proc: 0]: global_index_init: 6.532 [ms]
[OGL LOG][Proc: 0]p_local_coeffs: call_update: 0 [ms]
[OGL LOG][Proc: 0]p_non_local_coeffs: call_update: 0 [ms]
[OGL LOG][Proc: 0]p: update_local_matrix_data: 136.354 [ms]
[OGL LOG][Proc: 0]p: update_non_local_matrix_data: 1.657 [ms]
[OGL LOG][Proc: 0]p: regenerate_distributed_matrix: 489.024 [ms]
[OGL LOG][Proc: 0]p_matrix: call_update: 491.353 [ms]
[OGL LOG][Proc: 0]p_rhs: call_update: 13.334 [ms]
[OGL LOG][Proc: 0]p: init_precond: 0.061 [ms]
[OGL LOG][StoppingCriterion.H:239] Creating stopping criterion with minIter 1775 frequency 7
[OGL LOG][Proc: 0]p: generate_solver: 0.062 [ms]
[OGL LOG][Proc: 0]p: solve: 52922.3 [ms]
[OGL LOG][Proc: 0]p: copy_x_back: 15.755 [ms]
[OGL LOG][lduLduBase.H:330] 
Statistics:
	Time per iteration: 17741 [mu s]
	Time per residual norm calculation: 644.000000 [mu s]
	Time per iteration and DOF: 0.277203 [ns]
	Retrieve results bandwidth 2.717000 [GByte/s]
[OGL LOG][Proc: 0]p: solve_multi_gpu: 53462.9 [ms]
nonedpcppGKOCG:  Solving for p, Initial residual = 0.920784, Final residual = 9.66975e-05, No Iterations 2983
[INFO] SolveP: 53639.1 [ms]
time step continuity errors : sum local = 5.43912e-08, global = 9.07055e-22, cumulative = 2.12916e-20
[INFO] ContinuityError: 93.304 [ms]
[INFO] CorrectBoundary: 14.894 [ms]
[INFO] PISOStep: 55027.7 [ms]
[INFO] TimeStep: 115414 [ms]
ExecutionTime = 1770.82 s  ClockTime = 1783 s

Time = 0.002

Courant Number mean: 0.0411026 max: 1.72305
[INFO] MatrixAssemblyU: 639.529 [ms]
DILUPBiCGStab:  Solving for Ux, Initial residual = 0.0812122, Final residual = 0.00446522, No Iterations 5
DILUPBiCGStab:  Solving for Uy, Initial residual = 0.304054, Final residual = 0.0141127, No Iterations 5
DILUPBiCGStab:  Solving for Uz, Initial residual = 0.740961, Final residual = 0.0331654, No Iterations 5
[INFO] MomentumPredictor: 4773.93 [ms]
[INFO] MatrixAssemblyPI: 691.164 [ms]
[INFO] AdjustPhi: 85.364 [ms]
[INFO] ConstrainPressure: 0.002 [ms]
[INFO] MatrixAssemblyPII: 218.552 [ms]
[OGL LOG][Proc: 0]: global_index_init: 6.568 [ms]
[OGL LOG][Proc: 0]p_local_coeffs: call_update: 0 [ms]
[OGL LOG][Proc: 0]p_non_local_coeffs: call_update: 0 [ms]
[OGL LOG][Proc: 0]p: update_local_matrix_data: 135.201 [ms]
[OGL LOG][Proc: 0]p: update_non_local_matrix_data: 1.741 [ms]
[OGL LOG][Proc: 0]p: regenerate_distributed_matrix: 408.448 [ms]
[OGL LOG][Proc: 0]p_matrix: call_update: 410.177 [ms]
[OGL LOG][Proc: 0]p_rhs: call_update: 32.582 [ms]
[OGL LOG][Proc: 0]p: init_precond: 0.044 [ms]
[OGL LOG][StoppingCriterion.H:239] Creating stopping criterion with minIter 1789 frequency 6
[OGL LOG][Proc: 0]p: generate_solver: 0.019 [ms]
