/*---------------------------------------------------------------------------*\
| =========                 |                                                 |
| \\      /  F ield         | OpenFOAM: The Open Source CFD Toolbox           |
|  \\    /   O peration     | Version:  v2106                                 |
|   \\  /    A nd           | Website:  www.openfoam.com                      |
|    \\/     M anipulation  |                                                 |
\*---------------------------------------------------------------------------*/
Build  : f815a12bba-20210902 OPENFOAM=2106
Arch   : "LSB;label=32;scalar=64"
Exec   : icoFoam -parallel -case /home/greole/data/code/exasim_project/micro_benchmarks/LidDrivenCavity3D/workspace/60a2170b55906c83b75c7ba3dd924424/case
Date   : Jun 27 2023
Time   : 02:02:35
Host   : nla-gpu2.ianm.kit.edu
PID    : 224034
I/O    : uncollated
Case   : /home/greole/data/code/exasim_project/micro_benchmarks/LidDrivenCavity3D/workspace/60a2170b55906c83b75c7ba3dd924424/case
nProcs : 8
Hosts  :
(
    (nla-gpu2.ianm.kit.edu 8)
)
Pstream initialized with:
    floatTransfer      : 0
    nProcsSimpleSum    : 0
    commsType          : nonBlocking
    polling iterations : 0
trapFpe: Floating point exception trapping enabled (FOAM_SIGFPE).
fileModificationChecking : Monitoring run-time modified files using timeStampMaster (fileModificationSkew 5, maxFileModificationPolls 20)
allowSystemOperations : Allowing user-supplied system call operations

// * * * * * * * * * * * * * * * * * * * * * * * * * * * * * * * * * * * * * //
Create time

--> FOAM Warning : 
    From void* Foam::dlLibraryTable::openLibrary(const Foam::fileName&, bool)
    in file db/dynamicLibrary/dlLibraryTable/dlLibraryTable.C at line 188
    Could not load "libpetscFoam.so"
libpetscFoam.so: cannot open shared object file: No such file or directory
--> FOAM Warning : 
    From virtual void Foam::Time::readDict()
    in file db/Time/TimeIO.C at line 411
    Reading "/home/greole/data/code/exasim_project/micro_benchmarks/LidDrivenCavity3D/workspace/60a2170b55906c83b75c7ba3dd924424/case/system/controlDict" at line 17 to 47
    Disabled binary format compression (inefficient/ineffective)
Create mesh for time = 0


PISO: Operating solver in PISO mode

Reading transportProperties

Reading field p

Reading field U

Reading/calculating face flux field phi


Starting time loop

Time = 0.000166

Courant Number mean: 8.14055e-18 max: 3.11001e-14
[INFO] MatrixAssemblyU: 945.872 [ms]
DILUPBiCGStab:  Solving for Ux, Initial residual = 1, Final residual = 0.0159896, No Iterations 5
DILUPBiCGStab:  Solving for Uy:  solution singularity
DILUPBiCGStab:  Solving for Uz:  solution singularity
[INFO] MomentumPredictor: 3636.33 [ms]
[INFO] MatrixAssemblyPI: 1048.01 [ms]
[INFO] AdjustPhi: 57.834 [ms]
[INFO] ConstrainPressure: 0.006 [ms]
[INFO] MatrixAssemblyPII: 281.345 [ms]
nonePCG:  Solving for p, Initial residual = 1, Final residual = 9.82372e-05, No Iterations 2430
[INFO] SolveP: 244700 [ms]
time step continuity errors : sum local = 3.97615e-09, global = 1.57258e-21, cumulative = 1.57258e-21
[INFO] ContinuityError: 124.795 [ms]
[INFO] CorrectBoundary: 40.883 [ms]
[INFO] PISOStep: 246616 [ms]
[INFO] MatrixAssemblyPI: 965.247 [ms]
[INFO] AdjustPhi: 56.568 [ms]
[INFO] ConstrainPressure: 0.004 [ms]
[INFO] MatrixAssemblyPII: 278.527 [ms]
nonePCG:  Solving for p, Initial residual = 0.809676, Final residual = 9.81029e-05, No Iterations 2416
[INFO] SolveP: 242423 [ms]
time step continuity errors : sum local = 4.84534e-09, global = 7.17803e-22, cumulative = 2.29039e-21
[INFO] ContinuityError: 113.976 [ms]
[INFO] CorrectBoundary: 17.735 [ms]
[INFO] PISOStep: 244218 [ms]
[INFO] TimeStep: 495533 [ms]
ExecutionTime = 496.09 s  ClockTime = 498 s

Time = 0.000332

Courant Number mean: 0.0128497 max: 0.426563
[INFO] MatrixAssemblyU: 874.992 [ms]
DILUPBiCGStab:  Solving for Ux, Initial residual = 0.116942, Final residual = 0.00923014, No Iterations 5
DILUPBiCGStab:  Solving for Uy, Initial residual = 0.459876, Final residual = 0.0300233, No Iterations 5
DILUPBiCGStab:  Solving for Uz, Initial residual = 0.995323, Final residual = 0.0718333, No Iterations 5
[INFO] MomentumPredictor: 6756.65 [ms]
[INFO] MatrixAssemblyPI: 985.086 [ms]
[INFO] AdjustPhi: 73.697 [ms]
[INFO] ConstrainPressure: 0.003 [ms]
[INFO] MatrixAssemblyPII: 282.881 [ms]
nonePCG:  Solving for p, Initial residual = 0.878211, Final residual = 9.8744e-05, No Iterations 2380
[INFO] SolveP: 239165 [ms]
time step continuity errors : sum local = 9.38079e-09, global = -4.97713e-23, cumulative = 2.24062e-21
[INFO] ContinuityError: 113.988 [ms]
[INFO] CorrectBoundary: 29.333 [ms]
[INFO] PISOStep: 240988 [ms]
[INFO] MatrixAssemblyPI: 984.502 [ms]
[INFO] AdjustPhi: 62.801 [ms]
[INFO] ConstrainPressure: 0.004 [ms]
[INFO] MatrixAssemblyPII: 280.443 [ms]
nonePCG:  Solving for p, Initial residual = 0.826379, Final residual = 9.91177e-05, No Iterations 2376
[INFO] SolveP: 238254 [ms]
time step continuity errors : sum local = 9.5902e-09, global = -5.0823e-22, cumulative = 1.73238e-21
[INFO] ContinuityError: 115.702 [ms]
[INFO] CorrectBoundary: 15.44 [ms]
[INFO] PISOStep: 240067 [ms]
[INFO] TimeStep: 488819 [ms]
ExecutionTime = 982.79 s  ClockTime = 987 s

Time = 0.000498

Courant Number mean: 0.0198261 max: 0.491805
[INFO] MatrixAssemblyU: 883.244 [ms]
DILUPBiCGStab:  Solving for Ux, Initial residual = 0.0544583, Final residual = 0.00348872, No Iterations 5
DILUPBiCGStab:  Solving for Uy, Initial residual = 0.226377, Final residual = 0.0156762, No Iterations 5
DILUPBiCGStab:  Solving for Uz, Initial residual = 0.85496, Final residual = 0.0552657, No Iterations 5
[INFO] MomentumPredictor: 6794.83 [ms]
[INFO] MatrixAssemblyPI: 990.672 [ms]
[INFO] AdjustPhi: 68.739 [ms]
[INFO] ConstrainPressure: 0.003 [ms]
[INFO] MatrixAssemblyPII: 278.691 [ms]
nonePCG:  Solving for p, Initial residual = 0.913759, Final residual = 9.84948e-05, No Iterations 1154
[INFO] SolveP: 115955 [ms]
time step continuity errors : sum local = 1.07561e-08, global = 1.10474e-21, cumulative = 2.83713e-21
[INFO] ContinuityError: 109.446 [ms]
[INFO] CorrectBoundary: 27.453 [ms]
[INFO] PISOStep: 117766 [ms]
[INFO] MatrixAssemblyPI: 975.536 [ms]
[INFO] AdjustPhi: 76.811 [ms]
[INFO] ConstrainPressure: 0.003 [ms]
[INFO] MatrixAssemblyPII: 280.021 [ms]
nonePCG:  Solving for p, Initial residual = 0.882699, Final residual = 9.95671e-05, No Iterations 1150
[INFO] SolveP: 115457 [ms]
time step continuity errors : sum local = 1.03912e-08, global = 1.11509e-21, cumulative = 3.95222e-21
[INFO] ContinuityError: 110.682 [ms]
[INFO] CorrectBoundary: 10.124 [ms]
[INFO] PISOStep: 117270 [ms]
[INFO] TimeStep: 242850 [ms]
ExecutionTime = 1224.59 s  ClockTime = 1230 s

Time = 0.000664

Courant Number mean: 0.0239197 max: 0.47201
[INFO] MatrixAssemblyU: 883.893 [ms]
DILUPBiCGStab:  Solving for Ux, Initial residual = 0.0384983, Final residual = 0.00279685, No Iterations 5
DILUPBiCGStab:  Solving for Uy, Initial residual = 0.174095, Final residual = 0.0125984, No Iterations 5
DILUPBiCGStab:  Solving for Uz, Initial residual = 0.730708, Final residual = 0.0388502, No Iterations 5
[INFO] MomentumPredictor: 6715.15 [ms]
[INFO] MatrixAssemblyPI: 969.457 [ms]
[INFO] AdjustPhi: 86.007 [ms]
[INFO] ConstrainPressure: 0.004 [ms]
[INFO] MatrixAssemblyPII: 280.077 [ms]
nonePCG:  Solving for p, Initial residual = 0.890301, Final residual = 9.95435e-05, No Iterations 1295
[INFO] SolveP: 130012 [ms]
time step continuity errors : sum local = 1.19019e-08, global = -4.9089e-23, cumulative = 3.90313e-21
[INFO] ContinuityError: 103.115 [ms]
[INFO] CorrectBoundary: 9.895 [ms]
[INFO] PISOStep: 131802 [ms]
[INFO] MatrixAssemblyPI: 942.536 [ms]
[INFO] AdjustPhi: 93.026 [ms]
[INFO] ConstrainPressure: 0.003 [ms]
[INFO] MatrixAssemblyPII: 280.264 [ms]
nonePCG:  Solving for p, Initial residual = 0.83026, Final residual = 9.97302e-05, No Iterations 1155
[INFO] SolveP: 116018 [ms]
time step continuity errors : sum local = 1.15389e-08, global = 1.45123e-21, cumulative = 5.35436e-21
[INFO] ContinuityError: 108.7 [ms]
[INFO] CorrectBoundary: 10.688 [ms]
[INFO] PISOStep: 117808 [ms]
[INFO] TimeStep: 257339 [ms]
ExecutionTime = 1480.85 s  ClockTime = 1487 s

Time = 0.00083

Courant Number mean: 0.0274473 max: 0.504973
[INFO] MatrixAssemblyU: 882.339 [ms]
DILUPBiCGStab:  Solving for Ux, Initial residual = 0.0323997, Final residual = 0.00238113, No Iterations 5
DILUPBiCGStab:  Solving for Uy, Initial residual = 0.129649, Final residual = 0.0105525, No Iterations 5
DILUPBiCGStab:  Solving for Uz, Initial residual = 0.676359, Final residual = 0.0332292, No Iterations 5
[INFO] MomentumPredictor: 6703.33 [ms]
[INFO] MatrixAssemblyPI: 981.664 [ms]
[INFO] AdjustPhi: 54.339 [ms]
[INFO] ConstrainPressure: 0.002 [ms]
[INFO] MatrixAssemblyPII: 278.945 [ms]
nonePCG:  Solving for p, Initial residual = 0.910495, Final residual = 9.99271e-05, No Iterations 2375
[INFO] SolveP: 238257 [ms]
time step continuity errors : sum local = 1.10211e-08, global = 2.95474e-22, cumulative = 5.64984e-21
[INFO] ContinuityError: 104.783 [ms]
[INFO] CorrectBoundary: 10.814 [ms]
[INFO] PISOStep: 240030 [ms]
[INFO] MatrixAssemblyPI: 937.538 [ms]
[INFO] AdjustPhi: 79.747 [ms]
[INFO] ConstrainPressure: 0.004 [ms]
[INFO] MatrixAssemblyPII: 280.401 [ms]
nonePCG:  Solving for p, Initial residual = 0.872711, Final residual = 9.96101e-05, No Iterations 2373
[INFO] SolveP: 237807 [ms]
time step continuity errors : sum local = 1.0845e-08, global = 1.62997e-21, cumulative = 7.2798e-21
[INFO] ContinuityError: 108.693 [ms]
[INFO] CorrectBoundary: 8.91 [ms]
[INFO] PISOStep: 239572 [ms]
[INFO] TimeStep: 487306 [ms]
ExecutionTime = 1966.09 s  ClockTime = 1974 s

Time = 0.000996

Courant Number mean: 0.0301893 max: 0.478379
[INFO] MatrixAssemblyU: 878.365 [ms]
DILUPBiCGStab:  Solving for Ux, Initial residual = 0.0270645, Final residual = 0.0021372, No Iterations 5
DILUPBiCGStab:  Solving for Uy, Initial residual = 0.111902, Final residual = 0.00833951, No Iterations 5
DILUPBiCGStab:  Solving for Uz, Initial residual = 0.579751, Final residual = 0.0255716, No Iterations 5
[INFO] MomentumPredictor: 6704.3 [ms]
[INFO] MatrixAssemblyPI: 968.47 [ms]
[INFO] AdjustPhi: 76.847 [ms]
[INFO] ConstrainPressure: 0.003 [ms]
[INFO] MatrixAssemblyPII: 279.903 [ms]
nonePCG:  Solving for p, Initial residual = 0.887872, Final residual = 9.50368e-05, No Iterations 2373
[INFO] SolveP: 238262 [ms]
time step continuity errors : sum local = 1.06949e-08, global = 4.7204e-22, cumulative = 7.75184e-21
[INFO] ContinuityError: 105.867 [ms]
[INFO] CorrectBoundary: 9.149 [ms]
[INFO] PISOStep: 240045 [ms]
[INFO] MatrixAssemblyPI: 929.972 [ms]
[INFO] AdjustPhi: 88.613 [ms]
[INFO] ConstrainPressure: 0.003 [ms]
[INFO] MatrixAssemblyPII: 280.02 [ms]
nonePCG:  Solving for p, Initial residual = 0.824762, Final residual = 9.68979e-05, No Iterations 2370
[INFO] SolveP: 237574 [ms]
time step continuity errors : sum local = 1.10704e-08, global = 1.26387e-21, cumulative = 9.01571e-21
[INFO] ContinuityError: 108.796 [ms]
[INFO] CorrectBoundary: 8.951 [ms]
[INFO] PISOStep: 239340 [ms]
[INFO] TimeStep: 487086 [ms]
ExecutionTime = 2451.19 s  ClockTime = 2461 s

Time = 0.001162

Courant Number mean: 0.0326683 max: 0.511865
[INFO] MatrixAssemblyU: 883.83 [ms]
DILUPBiCGStab:  Solving for Ux, Initial residual = 0.0245518, Final residual = 0.00196824, No Iterations 5
DILUPBiCGStab:  Solving for Uy, Initial residual = 0.0982972, Final residual = 0.00769249, No Iterations 5
DILUPBiCGStab:  Solving for Uz, Initial residual = 0.553254, Final residual = 0.0228131, No Iterations 5
[INFO] MomentumPredictor: 6722.95 [ms]
[INFO] MatrixAssemblyPI: 978.582 [ms]
[INFO] AdjustPhi: 59.814 [ms]
[INFO] ConstrainPressure: 0.003 [ms]
[INFO] MatrixAssemblyPII: 279.006 [ms]
nonePCG:  Solving for p, Initial residual = 0.905823, Final residual = 9.93985e-05, No Iterations 2290
[INFO] SolveP: 229778 [ms]
time step continuity errors : sum local = 1.09071e-08, global = 8.94433e-22, cumulative = 9.91015e-21
[INFO] ContinuityError: 111.151 [ms]
[INFO] CorrectBoundary: 10.039 [ms]
[INFO] PISOStep: 231564 [ms]
[INFO] MatrixAssemblyPI: 940.607 [ms]
[INFO] AdjustPhi: 78.768 [ms]
[INFO] ConstrainPressure: 0.003 [ms]
[INFO] MatrixAssemblyPII: 280.238 [ms]
nonePCG:  Solving for p, Initial residual = 0.860986, Final residual = 9.86307e-05, No Iterations 2291
[INFO] SolveP: 229828 [ms]
time step continuity errors : sum local = 1.07045e-08, global = 1.32039e-21, cumulative = 1.12305e-20
[INFO] ContinuityError: 108.774 [ms]
[INFO] CorrectBoundary: 2.593 [ms]
[INFO] PISOStep: 231592 [ms]
[INFO] TimeStep: 470881 [ms]
ExecutionTime = 2920.18 s  ClockTime = 2932 s

Time = 0.001328

Courant Number mean: 0.034753 max: 0.481308
[INFO] MatrixAssemblyU: 883.144 [ms]
DILUPBiCGStab:  Solving for Ux, Initial residual = 0.0221228, Final residual = 0.00183354, No Iterations 5
DILUPBiCGStab:  Solving for Uy, Initial residual = 0.0870764, Final residual = 0.00645292, No Iterations 5
DILUPBiCGStab:  Solving for Uz, Initial residual = 0.510106, Final residual = 0.0204672, No Iterations 5
[INFO] MomentumPredictor: 6703.55 [ms]
[INFO] MatrixAssemblyPI: 980.147 [ms]
[INFO] AdjustPhi: 56.391 [ms]
[INFO] ConstrainPressure: 0.002 [ms]
[INFO] MatrixAssemblyPII: 278.761 [ms]
nonePCG:  Solving for p, Initial residual = 0.883752, Final residual = 9.95142e-05, No Iterations 2310
[INFO] SolveP: 231747 [ms]
time step continuity errors : sum local = 1.10904e-08, global = 1.50733e-21, cumulative = 1.27379e-20
[INFO] ContinuityError: 107.309 [ms]
[INFO] CorrectBoundary: 2.506 [ms]
[INFO] PISOStep: 233514 [ms]
[INFO] MatrixAssemblyPI: 935.445 [ms]
[INFO] AdjustPhi: 92.626 [ms]
[INFO] ConstrainPressure: 0.004 [ms]
[INFO] MatrixAssemblyPII: 280.401 [ms]
nonePCG:  Solving for p, Initial residual = 0.817908, Final residual = 9.87732e-05, No Iterations 2301
[INFO] SolveP: 230864 [ms]
time step continuity errors : sum local = 1.11597e-08, global = 9.33421e-23, cumulative = 1.28312e-20
[INFO] ContinuityError: 108.868 [ms]
[INFO] CorrectBoundary: 2.851 [ms]
[INFO] PISOStep: 232628 [ms]
[INFO] TimeStep: 473853 [ms]
ExecutionTime = 3392.15 s  ClockTime = 3406 s

Time = 0.001494

Courant Number mean: 0.0367021 max: 0.518002
[INFO] MatrixAssemblyU: 879.739 [ms]
DILUPBiCGStab:  Solving for Ux, Initial residual = 0.0205477, Final residual = 0.00171318, No Iterations 5
DILUPBiCGStab:  Solving for Uy, Initial residual = 0.0819387, Final residual = 0.00611194, No Iterations 5
DILUPBiCGStab:  Solving for Uz, Initial residual = 0.506093, Final residual = 0.0192315, No Iterations 5
[INFO] MomentumPredictor: 6670.43 [ms]
[INFO] MatrixAssemblyPI: 981.073 [ms]
[INFO] AdjustPhi: 47.154 [ms]
[INFO] ConstrainPressure: 0.003 [ms]
[INFO] MatrixAssemblyPII: 279.328 [ms]
nonePCG:  Solving for p, Initial residual = 0.901648, Final residual = 9.91676e-05, No Iterations 2091
[INFO] SolveP: 210130 [ms]
time step continuity errors : sum local = 1.08236e-08, global = 1.89333e-21, cumulative = 1.47245e-20
[INFO] ContinuityError: 102.241 [ms]
[INFO] CorrectBoundary: 2.245 [ms]
[INFO] PISOStep: 211880 [ms]
[INFO] MatrixAssemblyPI: 931.71 [ms]
[INFO] AdjustPhi: 87.213 [ms]
[INFO] ConstrainPressure: 0.003 [ms]
[INFO] MatrixAssemblyPII: 280.47 [ms]
nonePCG:  Solving for p, Initial residual = 0.851759, Final residual = 9.75101e-05, No Iterations 2081
[INFO] SolveP: 208644 [ms]
time step continuity errors : sum local = 1.05384e-08, global = -7.10418e-23, cumulative = 1.46535e-20
[INFO] ContinuityError: 109.006 [ms]
[INFO] CorrectBoundary: 2.841 [ms]
[INFO] PISOStep: 210394 [ms]
[INFO] TimeStep: 429947 [ms]
ExecutionTime = 3820.39 s  ClockTime = 3836 s

Time = 0.00166

Courant Number mean: 0.0383957 max: 0.483672
[INFO] MatrixAssemblyU: 881.927 [ms]
DILUPBiCGStab:  Solving for Ux, Initial residual = 0.0193394, Final residual = 0.00162674, No Iterations 5
DILUPBiCGStab:  Solving for Uy, Initial residual = 0.073617, Final residual = 0.00529596, No Iterations 5
DILUPBiCGStab:  Solving for Uz, Initial residual = 0.485025, Final residual = 0.0184736, No Iterations 5
[INFO] MomentumPredictor: 6680.3 [ms]
[INFO] MatrixAssemblyPI: 979.173 [ms]
[INFO] AdjustPhi: 49.592 [ms]
[INFO] ConstrainPressure: 0.003 [ms]
[INFO] MatrixAssemblyPII: 278.346 [ms]
nonePCG:  Solving for p, Initial residual = 0.882647, Final residual = 9.96407e-05, No Iterations 2298
[INFO] SolveP: 230987 [ms]
time step continuity errors : sum local = 1.12242e-08, global = 1.88581e-22, cumulative = 1.48421e-20
[INFO] ContinuityError: 101.027 [ms]
[INFO] CorrectBoundary: 2.013 [ms]
[INFO] PISOStep: 232737 [ms]
[INFO] MatrixAssemblyPI: 935.756 [ms]
[INFO] AdjustPhi: 83.821 [ms]
[INFO] ConstrainPressure: 0.003 [ms]
[INFO] MatrixAssemblyPII: 280.199 [ms]
nonePCG:  Solving for p, Initial residual = 0.813518, Final residual = 9.72926e-05, No Iterations 2296
[INFO] SolveP: 229842 [ms]
time step continuity errors : sum local = 1.10972e-08, global = 7.42579e-22, cumulative = 1.55847e-20
[INFO] ContinuityError: 108.87 [ms]
[INFO] CorrectBoundary: 2.752 [ms]
[INFO] PISOStep: 231591 [ms]
[INFO] TimeStep: 472007 [ms]
ExecutionTime = 4290.53 s  ClockTime = 4308 s

Time = 0.001826

Courant Number mean: 0.0400178 max: 0.524624
[INFO] MatrixAssemblyU: 882.614 [ms]
DILUPBiCGStab:  Solving for Ux, Initial residual = 0.0181679, Final residual = 0.00152144, No Iterations 5
DILUPBiCGStab:  Solving for Uy, Initial residual = 0.0719961, Final residual = 0.00511589, No Iterations 5
DILUPBiCGStab:  Solving for Uz, Initial residual = 0.486107, Final residual = 0.0172522, No Iterations 5
[INFO] MomentumPredictor: 6700.07 [ms]
[INFO] MatrixAssemblyPI: 978.641 [ms]
[INFO] AdjustPhi: 56.646 [ms]
[INFO] ConstrainPressure: 0.003 [ms]
[INFO] MatrixAssemblyPII: 280.001 [ms]
nonePCG:  Solving for p, Initial residual = 0.901648, Final residual = 9.878e-05, No Iterations 2295
[INFO] SolveP: 230540 [ms]
time step continuity errors : sum local = 1.10656e-08, global = -9.65423e-22, cumulative = 1.46192e-20
[INFO] ContinuityError: 104.921 [ms]
[INFO] CorrectBoundary: 2.309 [ms]
[INFO] PISOStep: 232306 [ms]
[INFO] MatrixAssemblyPI: 930.889 [ms]
[INFO] AdjustPhi: 99.838 [ms]
[INFO] ConstrainPressure: 0.004 [ms]
[INFO] MatrixAssemblyPII: 280.551 [ms]
nonePCG:  Solving for p, Initial residual = 0.847157, Final residual = 9.92116e-05, No Iterations 2291
[INFO] SolveP: 229471 [ms]
time step continuity errors : sum local = 1.10206e-08, global = -4.93903e-22, cumulative = 1.41253e-20
[INFO] ContinuityError: 104.005 [ms]
[INFO] CorrectBoundary: 2.46 [ms]
[INFO] PISOStep: 231229 [ms]
[INFO] TimeStep: 471238 [ms]
ExecutionTime = 4759.92 s  ClockTime = 4779 s

Time = 0.001992

Courant Number mean: 0.0414491 max: 0.486754
[INFO] MatrixAssemblyU: 883.722 [ms]
DILUPBiCGStab:  Solving for Ux, Initial residual = 0.0175751, Final residual = 0.0014694, No Iterations 5
DILUPBiCGStab:  Solving for Uy, Initial residual = 0.0655239, Final residual = 0.00449849, No Iterations 5
DILUPBiCGStab:  Solving for Uz, Initial residual = 0.471072, Final residual = 0.0165807, No Iterations 5
[INFO] MomentumPredictor: 6715.12 [ms]
[INFO] MatrixAssemblyPI: 980.616 [ms]
[INFO] AdjustPhi: 62.969 [ms]
[INFO] ConstrainPressure: 0.003 [ms]
[INFO] MatrixAssemblyPII: 279.13 [ms]
nonePCG:  Solving for p, Initial residual = 0.884163, Final residual = 9.89338e-05, No Iterations 2204
[INFO] SolveP: 221591 [ms]
time step continuity errors : sum local = 1.15199e-08, global = 1.72567e-22, cumulative = 1.42979e-20
[INFO] ContinuityError: 107.785 [ms]
[INFO] CorrectBoundary: 2.481 [ms]
[INFO] PISOStep: 223369 [ms]
[INFO] MatrixAssemblyPI: 964.797 [ms]
[INFO] AdjustPhi: 66.438 [ms]
[INFO] ConstrainPressure: 0.003 [ms]
[INFO] MatrixAssemblyPII: 280.29 [ms]
nonePCG:  Solving for p, Initial residual = 0.81362, Final residual = 9.97167e-05, No Iterations 2217
[INFO] SolveP: 221668 [ms]
time step continuity errors : sum local = 1.17406e-08, global = 1.44784e-21, cumulative = 1.57457e-20
[INFO] ContinuityError: 101.536 [ms]
[INFO] CorrectBoundary: 2.701 [ms]
[INFO] PISOStep: 223419 [ms]
[INFO] TimeStep: 454516 [ms]
ExecutionTime = 5212.64 s  ClockTime = 5234 s

Time = 0.002158

Courant Number mean: 0.0428475 max: 0.532249
[INFO] MatrixAssemblyU: 882.439 [ms]
DILUPBiCGStab:  Solving for Ux, Initial residual = 0.0166424, Final residual = 0.00136959, No Iterations 5
DILUPBiCGStab:  Solving for Uy, Initial residual = 0.0655703, Final residual = 0.00442788, No Iterations 5
DILUPBiCGStab:  Solving for Uz, Initial residual = 0.479109, Final residual = 0.0163701, No Iterations 5
[INFO] MomentumPredictor: 6671.48 [ms]
[INFO] MatrixAssemblyPI: 977.811 [ms]
[INFO] AdjustPhi: 51.713 [ms]
[INFO] ConstrainPressure: 0.003 [ms]
[INFO] MatrixAssemblyPII: 279.842 [ms]
nonePCG:  Solving for p, Initial residual = 0.902377, Final residual = 9.99962e-05, No Iterations 2292
[INFO] SolveP: 230465 [ms]
time step continuity errors : sum local = 1.16429e-08, global = 1.23452e-22, cumulative = 1.58692e-20
[INFO] ContinuityError: 101.949 [ms]
[INFO] CorrectBoundary: 2.198 [ms]
[INFO] PISOStep: 232213 [ms]
[INFO] MatrixAssemblyPI: 934.776 [ms]
[INFO] AdjustPhi: 91.405 [ms]
[INFO] ConstrainPressure: 0.004 [ms]
[INFO] MatrixAssemblyPII: 279.944 [ms]
nonePCG:  Solving for p, Initial residual = 0.844278, Final residual = 9.98503e-05, No Iterations 2291
[INFO] SolveP: 229329 [ms]
time step continuity errors : sum local = 1.15446e-08, global = 7.63326e-23, cumulative = 1.59455e-20
[INFO] ContinuityError: 99.918 [ms]
[INFO] CorrectBoundary: 2.661 [ms]
[INFO] PISOStep: 231075 [ms]
[INFO] TimeStep: 470968 [ms]
ExecutionTime = 5681.75 s  ClockTime = 5705 s

Time = 0.002324

Courant Number mean: 0.0440892 max: 0.48979
[INFO] MatrixAssemblyU: 882.711 [ms]
DILUPBiCGStab:  Solving for Ux, Initial residual = 0.016407, Final residual = 0.00134431, No Iterations 5
DILUPBiCGStab:  Solving for Uy, Initial residual = 0.0604385, Final residual = 0.00392987, No Iterations 5
DILUPBiCGStab:  Solving for Uz, Initial residual = 0.469355, Final residual = 0.0157723, No Iterations 5
[INFO] MomentumPredictor: 6725 [ms]
[INFO] MatrixAssemblyPI: 977.127 [ms]
[INFO] AdjustPhi: 53.621 [ms]
[INFO] ConstrainPressure: 0.003 [ms]
[INFO] MatrixAssemblyPII: 278.186 [ms]
nonePCG:  Solving for p, Initial residual = 0.886501, Final residual = 9.74967e-05, No Iterations 2295
[INFO] SolveP: 230767 [ms]
time step continuity errors : sum local = 1.18175e-08, global = 1.01923e-21, cumulative = 1.69648e-20
[INFO] ContinuityError: 100.707 [ms]
[INFO] CorrectBoundary: 2.325 [ms]
[INFO] PISOStep: 232521 [ms]
[INFO] MatrixAssemblyPI: 935.337 [ms]
[INFO] AdjustPhi: 92.699 [ms]
[INFO] ConstrainPressure: 0.004 [ms]
[INFO] MatrixAssemblyPII: 280.612 [ms]
nonePCG:  Solving for p, Initial residual = 0.814791, Final residual = 9.89906e-05, No Iterations 2292
[INFO] SolveP: 229537 [ms]
time step continuity errors : sum local = 1.21158e-08, global = 1.47848e-21, cumulative = 1.84432e-20
[INFO] ContinuityError: 100.915 [ms]
[INFO] CorrectBoundary: 2.583 [ms]
[INFO] PISOStep: 231296 [ms]
[INFO] TimeStep: 471545 [ms]
ExecutionTime = 6151.43 s  ClockTime = 6176 s

Time = 0.00249

Courant Number mean: 0.0453248 max: 0.540991
[INFO] MatrixAssemblyU: 882.086 [ms]
DILUPBiCGStab:  Solving for Ux, Initial residual = 0.0156592, Final residual = 0.00124705, No Iterations 5
DILUPBiCGStab:  Solving for Uy, Initial residual = 0.061319, Final residual = 0.0039275, No Iterations 5
DILUPBiCGStab:  Solving for Uz, Initial residual = 0.480118, Final residual = 0.0157548, No Iterations 5
[INFO] MomentumPredictor: 6698.72 [ms]
[INFO] MatrixAssemblyPI: 980.043 [ms]
[INFO] AdjustPhi: 46.061 [ms]
[INFO] ConstrainPressure: 0.003 [ms]
[INFO] MatrixAssemblyPII: 279.3 [ms]
nonePCG:  Solving for p, Initial residual = 0.903211, Final residual = 9.49213e-05, No Iterations 2292
[INFO] SolveP: 230398 [ms]
time step continuity errors : sum local = 1.15494e-08, global = 1.09342e-21, cumulative = 1.95367e-20
[INFO] ContinuityError: 106.154 [ms]
[INFO] CorrectBoundary: 2.41 [ms]
[INFO] PISOStep: 232154 [ms]
[INFO] MatrixAssemblyPI: 951.045 [ms]
[INFO] AdjustPhi: 77.393 [ms]
[INFO] ConstrainPressure: 0.004 [ms]
[INFO] MatrixAssemblyPII: 279.969 [ms]
nonePCG:  Solving for p, Initial residual = 0.842126, Final residual = 9.77785e-05, No Iterations 2290
[INFO] SolveP: 229024 [ms]
time step continuity errors : sum local = 1.18299e-08, global = 1.12283e-22, cumulative = 1.96489e-20
[INFO] ContinuityError: 100.718 [ms]
[INFO] CorrectBoundary: 2.367 [ms]
[INFO] PISOStep: 230773 [ms]
[INFO] TimeStep: 470629 [ms]
ExecutionTime = 6620.2 s  ClockTime = 6647 s

Time = 0.002656

Courant Number mean: 0.0464224 max: 0.492863
[INFO] MatrixAssemblyU: 853.806 [ms]
DILUPBiCGStab:  Solving for Ux, Initial residual = 0.0156463, Final residual = 0.00124143, No Iterations 5
DILUPBiCGStab:  Solving for Uy, Initial residual = 0.0572895, Final residual = 0.00351468, No Iterations 5
DILUPBiCGStab:  Solving for Uz, Initial residual = 0.4741, Final residual = 0.0154047, No Iterations 5
[INFO] MomentumPredictor: 6728.6 [ms]
[INFO] MatrixAssemblyPI: 978.813 [ms]
[INFO] AdjustPhi: 54.121 [ms]
[INFO] ConstrainPressure: 0.003 [ms]
[INFO] MatrixAssemblyPII: 279.782 [ms]
nonePCG:  Solving for p, Initial residual = 0.889507, Final residual = 9.84971e-05, No Iterations 2295
[INFO] SolveP: 230754 [ms]
time step continuity errors : sum local = 1.24671e-08, global = -3.46266e-22, cumulative = 1.93027e-20
[INFO] ContinuityError: 106.013 [ms]
[INFO] CorrectBoundary: 2.508 [ms]
[INFO] PISOStep: 232516 [ms]
[INFO] MatrixAssemblyPI: 952.495 [ms]
[INFO] AdjustPhi: 79.526 [ms]
[INFO] ConstrainPressure: 0.004 [ms]
[INFO] MatrixAssemblyPII: 279.886 [ms]
nonePCG:  Solving for p, Initial residual = 0.816839, Final residual = 9.97277e-05, No Iterations 2291
[INFO] SolveP: 229376 [ms]
time step continuity errors : sum local = 1.27299e-08, global = 1.57317e-21, cumulative = 2.08758e-20
[INFO] ContinuityError: 100.553 [ms]
[INFO] CorrectBoundary: 2.327 [ms]
[INFO] PISOStep: 231126 [ms]
[INFO] TimeStep: 471347 [ms]
ExecutionTime = 7089.69 s  ClockTime = 7118 s

Time = 0.002822

Courant Number mean: 0.0475332 max: 0.551147
[INFO] MatrixAssemblyU: 859.704 [ms]
DILUPBiCGStab:  Solving for Ux, Initial residual = 0.0150695, Final residual = 0.00114941, No Iterations 5
DILUPBiCGStab:  Solving for Uy, Initial residual = 0.0586247, Final residual = 0.00355394, No Iterations 5
DILUPBiCGStab:  Solving for Uz, Initial residual = 0.485629, Final residual = 0.0154581, No Iterations 5
[INFO] MomentumPredictor: 6736.91 [ms]
[INFO] MatrixAssemblyPI: 984.745 [ms]
[INFO] AdjustPhi: 51.649 [ms]
[INFO] ConstrainPressure: 0.003 [ms]
[INFO] MatrixAssemblyPII: 278.678 [ms]
nonePCG:  Solving for p, Initial residual = 0.904763, Final residual = 9.722e-05, No Iterations 2291
[INFO] SolveP: 230426 [ms]
time step continuity errors : sum local = 1.24076e-08, global = 1.00705e-21, cumulative = 2.18829e-20
[INFO] ContinuityError: 105.858 [ms]
[INFO] CorrectBoundary: 2.549 [ms]
[INFO] PISOStep: 232191 [ms]
[INFO] MatrixAssemblyPI: 932.902 [ms]
[INFO] AdjustPhi: 103.725 [ms]
[INFO] ConstrainPressure: 0.003 [ms]
[INFO] MatrixAssemblyPII: 278.441 [ms]
nonePCG:  Solving for p, Initial residual = 0.840595, Final residual = 9.77144e-05, No Iterations 2289
[INFO] SolveP: 228960 [ms]
time step continuity errors : sum local = 1.24156e-08, global = 1.92458e-21, cumulative = 2.38075e-20
[INFO] ContinuityError: 101.453 [ms]
[INFO] CorrectBoundary: 2.334 [ms]
[INFO] PISOStep: 230718 [ms]
[INFO] TimeStep: 470627 [ms]
ExecutionTime = 7558.46 s  ClockTime = 7589 s

Time = 0.002988

Courant Number mean: 0.0485163 max: 0.496214
[INFO] MatrixAssemblyU: 882.594 [ms]
DILUPBiCGStab:  Solving for Ux, Initial residual = 0.0151954, Final residual = 0.00115572, No Iterations 5
DILUPBiCGStab:  Solving for Uy, Initial residual = 0.0555404, Final residual = 0.00320624, No Iterations 5
DILUPBiCGStab:  Solving for Uz, Initial residual = 0.481986, Final residual = 0.015225, No Iterations 5
[INFO] MomentumPredictor: 6713.88 [ms]
[INFO] MatrixAssemblyPI: 984.461 [ms]
[INFO] AdjustPhi: 52.493 [ms]
[INFO] ConstrainPressure: 0.004 [ms]
[INFO] MatrixAssemblyPII: 279.693 [ms]
nonePCG:  Solving for p, Initial residual = 0.894236, Final residual = 9.74892e-05, No Iterations 2296
[INFO] SolveP: 230763 [ms]
time step continuity errors : sum local = 1.29397e-08, global = 2.48878e-24, cumulative = 2.381e-20
[INFO] ContinuityError: 103.559 [ms]
[INFO] CorrectBoundary: 2.419 [ms]
[INFO] PISOStep: 232528 [ms]
[INFO] MatrixAssemblyPI: 928.137 [ms]
[INFO] AdjustPhi: 105.433 [ms]
[INFO] ConstrainPressure: 0.004 [ms]
[INFO] MatrixAssemblyPII: 280.434 [ms]
nonePCG:  Solving for p, Initial residual = 0.820132, Final residual = 9.99886e-05, No Iterations 2291
[INFO] SolveP: 229543 [ms]
time step continuity errors : sum local = 1.33694e-08, global = 1.3737e-21, cumulative = 2.51837e-20
[INFO] ContinuityError: 101.419 [ms]
[INFO] CorrectBoundary: 2.35 [ms]
[INFO] PISOStep: 231298 [ms]
[INFO] TimeStep: 471547 [ms]
ExecutionTime = 8028.15 s  ClockTime = 8061 s

Time = 0.003154

Courant Number mean: 0.0495292 max: 0.562887
[INFO] MatrixAssemblyU: 882.242 [ms]
DILUPBiCGStab:  Solving for Ux, Initial residual = 0.0147924, Final residual = 0.00107265, No Iterations 5
DILUPBiCGStab:  Solving for Uy, Initial residual = 0.0571509, Final residual = 0.00327107, No Iterations 5
DILUPBiCGStab:  Solving for Uz, Initial residual = 0.493722, Final residual = 0.0153141, No Iterations 5
[INFO] MomentumPredictor: 6717.03 [ms]
[INFO] MatrixAssemblyPI: 984.745 [ms]
[INFO] AdjustPhi: 59.702 [ms]
[INFO] ConstrainPressure: 0.003 [ms]
[INFO] MatrixAssemblyPII: 278.954 [ms]
nonePCG:  Solving for p, Initial residual = 0.9075, Final residual = 9.64377e-05, No Iterations 2296
[INFO] SolveP: 230770 [ms]
time step continuity errors : sum local = 1.29765e-08, global = -1.06266e-21, cumulative = 2.4121e-20
[INFO] ContinuityError: 105.028 [ms]
[INFO] CorrectBoundary: 2.422 [ms]
[INFO] PISOStep: 232540 [ms]
[INFO] MatrixAssemblyPI: 933.919 [ms]
[INFO] AdjustPhi: 102.373 [ms]
[INFO] ConstrainPressure: 0.004 [ms]
[INFO] MatrixAssemblyPII: 280.016 [ms]
nonePCG:  Solving for p, Initial residual = 0.840512, Final residual = 9.73587e-05, No Iterations 2292
[INFO] SolveP: 229448 [ms]
time step continuity errors : sum local = 1.30567e-08, global = 8.07999e-22, cumulative = 2.4929e-20
[INFO] ContinuityError: 100.612 [ms]
[INFO] CorrectBoundary: 2.376 [ms]
[INFO] PISOStep: 231204 [ms]
[INFO] TimeStep: 471468 [ms]
ExecutionTime = 8497.77 s  ClockTime = 8532 s

Time = 0.00332

Courant Number mean: 0.0504191 max: 0.499826
[INFO] MatrixAssemblyU: 883.198 [ms]
DILUPBiCGStab:  Solving for Ux, Initial residual = 0.0150213, Final residual = 0.00108489, No Iterations 5
DILUPBiCGStab:  Solving for Uy, Initial residual = 0.0548406, Final residual = 0.00297809, No Iterations 5
DILUPBiCGStab:  Solving for Uz, Initial residual = 0.491901, Final residual = 0.0151545, No Iterations 5
[INFO] MomentumPredictor: 6720.34 [ms]
[INFO] MatrixAssemblyPI: 979.058 [ms]
[INFO] AdjustPhi: 52.242 [ms]
[INFO] ConstrainPressure: 0.003 [ms]
[INFO] MatrixAssemblyPII: 279.436 [ms]
nonePCG:  Solving for p, Initial residual = 0.899812, Final residual = 9.98934e-05, No Iterations 2296
[INFO] SolveP: 230528 [ms]
time step continuity errors : sum local = 1.39687e-08, global = -9.25058e-22, cumulative = 2.40039e-20
[INFO] ContinuityError: 109.072 [ms]
[INFO] CorrectBoundary: 2.452 [ms]
[INFO] PISOStep: 232289 [ms]
[INFO] MatrixAssemblyPI: 947.659 [ms]
[INFO] AdjustPhi: 75.358 [ms]
[INFO] ConstrainPressure: 0.004 [ms]
[INFO] MatrixAssemblyPII: 279.707 [ms]
nonePCG:  Solving for p, Initial residual = 0.824774, Final residual = 9.93409e-05, No Iterations 2293
[INFO] SolveP: 229221 [ms]
time step continuity errors : sum local = 1.39812e-08, global = 3.25987e-22, cumulative = 2.43299e-20
[INFO] ContinuityError: 103.552 [ms]
[INFO] CorrectBoundary: 2.195 [ms]
[INFO] PISOStep: 230967 [ms]
[INFO] TimeStep: 470986 [ms]
ExecutionTime = 8966.95 s  ClockTime = 9003 s

End

Finalising parallel run
