/*---------------------------------------------------------------------------*\
| =========                 |                                                 |
| \\      /  F ield         | OpenFOAM: The Open Source CFD Toolbox           |
|  \\    /   O peration     | Version:  v2106                                 |
|   \\  /    A nd           | Website:  www.openfoam.com                      |
|    \\/     M anipulation  |                                                 |
\*---------------------------------------------------------------------------*/
Build  : f815a12bba-20210902 OPENFOAM=2106
Arch   : "LSB;label=32;scalar=64"
Exec   : simpleFoam -parallel -case /home/greole/data/code/exasim_project/micro_benchmarks/WindsorBody/workspace/d0b0c68dd1495bf7f52a3975b317f4ef/case
Date   : Jun 25 2023
Time   : 19:20:15
Host   : nla-gpu2.ianm.kit.edu
PID    : 3744177
I/O    : uncollated
Case   : /home/greole/data/code/exasim_project/micro_benchmarks/WindsorBody/workspace/d0b0c68dd1495bf7f52a3975b317f4ef/case
nProcs : 16
Hosts  :
(
    (nla-gpu2.ianm.kit.edu 16)
)
Pstream initialized with:
    floatTransfer      : 0
    nProcsSimpleSum    : 0
    commsType          : nonBlocking
    polling iterations : 0
trapFpe: Floating point exception trapping enabled (FOAM_SIGFPE).
fileModificationChecking : Monitoring run-time modified files using timeStampMaster (fileModificationSkew 5, maxFileModificationPolls 20)
allowSystemOperations : Allowing user-supplied system call operations

// * * * * * * * * * * * * * * * * * * * * * * * * * * * * * * * * * * * * * //
Create time

Create mesh for time = 0


SIMPLE: convergence criteria
    field p	 tolerance 1e-08
    field U	 tolerance 1e-08
    field k	 tolerance 1e-08
    field omega	 tolerance 1e-08
    field nuTilda	 tolerance 1e-08

Reading field p

Reading field U

Reading/calculating face flux field phi

Selecting incompressible transport model Newtonian
Selecting turbulence model type RAS
Selecting RAS turbulence model SpalartAllmaras
Selecting patchDistMethod meshWave
RAS
{
    RASModel        SpalartAllmaras;
    turbulence      on;
    printCoeffs     on;
    sigmaNut        0.6666666666666666;
    kappa           0.41;
    Cb1             0.1355;
    Cb2             0.622;
    Cw2             0.3;
    Cw3             2;
    Cv1             7.1;
    Cs              0.3;
}

No MRF models present

Creating finite volume options from "system/fvOptions"

Selecting finite volume options type velocityDampingConstraint
    Source: velocityDamping
    - selecting all cells
    - selected 18921408 cell(s) with volume 83.47749154808596

Starting time loop

--> FOAM Warning : 
    From bool Foam::functionObjectList::read()
    in file db/functionObjects/functionObjectList/functionObjectList.C at line 1013
    Reading "/home/greole/data/code/exasim_project/micro_benchmarks/WindsorBody/workspace/d0b0c68dd1495bf7f52a3975b317f4ef/case/system/controlDict" at line 2 to 41
    Entry lref is not a dictionary
--> FOAM Warning : 
    From bool Foam::functionObjectList::read()
    in file db/functionObjects/functionObjectList/functionObjectList.C at line 1013
    Reading "/home/greole/data/code/exasim_project/micro_benchmarks/WindsorBody/workspace/d0b0c68dd1495bf7f52a3975b317f4ef/case/system/controlDict" at line 2 to 41
    Entry Aref is not a dictionary
--> FOAM Warning : 
    From bool Foam::functionObjectList::read()
    in file db/functionObjects/functionObjectList/functionObjectList.C at line 1013
    Reading "/home/greole/data/code/exasim_project/micro_benchmarks/WindsorBody/workspace/d0b0c68dd1495bf7f52a3975b317f4ef/case/system/controlDict" at line 2 to 41
    Entry yawAngle is not a dictionary
--> FOAM Warning : 
    From bool Foam::functionObjectList::read()
    in file db/functionObjects/functionObjectList/functionObjectList.C at line 1013
    Reading "/home/greole/data/code/exasim_project/micro_benchmarks/WindsorBody/workspace/d0b0c68dd1495bf7f52a3975b317f4ef/case/system/controlDict" at line 2 to 41
    Entry lDomain is not a dictionary
--> FOAM Warning : 
    From bool Foam::functionObjectList::read()
    in file db/functionObjects/functionObjectList/functionObjectList.C at line 1013
    Reading "/home/greole/data/code/exasim_project/micro_benchmarks/WindsorBody/workspace/d0b0c68dd1495bf7f52a3975b317f4ef/case/system/controlDict" at line 2 to 41
    Entry bDomain is not a dictionary
--> FOAM Warning : 
    From bool Foam::functionObjectList::read()
    in file db/functionObjects/functionObjectList/functionObjectList.C at line 1013
    Reading "/home/greole/data/code/exasim_project/micro_benchmarks/WindsorBody/workspace/d0b0c68dd1495bf7f52a3975b317f4ef/case/system/controlDict" at line 2 to 41
    Entry hDomain is not a dictionary
--> FOAM Warning : 
    From bool Foam::functionObjectList::read()
    in file db/functionObjects/functionObjectList/functionObjectList.C at line 1013
    Reading "/home/greole/data/code/exasim_project/micro_benchmarks/WindsorBody/workspace/d0b0c68dd1495bf7f52a3975b317f4ef/case/system/controlDict" at line 2 to 41
    Entry xCenter is not a dictionary
--> FOAM Warning : 
    From bool Foam::functionObjectList::read()
    in file db/functionObjects/functionObjectList/functionObjectList.C at line 1013
    Reading "/home/greole/data/code/exasim_project/micro_benchmarks/WindsorBody/workspace/d0b0c68dd1495bf7f52a3975b317f4ef/case/system/controlDict" at line 2 to 41
    Entry yCenter is not a dictionary
--> FOAM Warning : 
    From bool Foam::functionObjectList::read()
    in file db/functionObjects/functionObjectList/functionObjectList.C at line 1013
    Reading "/home/greole/data/code/exasim_project/micro_benchmarks/WindsorBody/workspace/d0b0c68dd1495bf7f52a3975b317f4ef/case/system/controlDict" at line 2 to 41
    Entry zCenter is not a dictionary
--> FOAM Warning : 
    From bool Foam::functionObjectList::read()
    in file db/functionObjects/functionObjectList/functionObjectList.C at line 1013
    Reading "/home/greole/data/code/exasim_project/micro_benchmarks/WindsorBody/workspace/d0b0c68dd1495bf7f52a3975b317f4ef/case/system/controlDict" at line 2 to 41
    Entry inletPatch is not a dictionary
--> FOAM Warning : 
    From bool Foam::functionObjectList::read()
    in file db/functionObjects/functionObjectList/functionObjectList.C at line 1013
    Reading "/home/greole/data/code/exasim_project/micro_benchmarks/WindsorBody/workspace/d0b0c68dd1495bf7f52a3975b317f4ef/case/system/controlDict" at line 2 to 41
    Entry outletPatch is not a dictionary
--> FOAM Warning : 
    From bool Foam::functionObjectList::read()
    in file db/functionObjects/functionObjectList/functionObjectList.C at line 1013
    Reading "/home/greole/data/code/exasim_project/micro_benchmarks/WindsorBody/workspace/d0b0c68dd1495bf7f52a3975b317f4ef/case/system/controlDict" at line 2 to 41
    Entry wallPatches is not a dictionary
--> FOAM Warning : 
    From bool Foam::functionObjectList::read()
    in file db/functionObjects/functionObjectList/functionObjectList.C at line 1013
    Reading "/home/greole/data/code/exasim_project/micro_benchmarks/WindsorBody/workspace/d0b0c68dd1495bf7f52a3975b317f4ef/case/system/controlDict" at line 2 to 41
    Entry forcesWallPatches is not a dictionary
--> FOAM Warning : 
    From bool Foam::functionObjectList::read()
    in file db/functionObjects/functionObjectList/functionObjectList.C at line 1013
    Reading "/home/greole/data/code/exasim_project/micro_benchmarks/WindsorBody/workspace/d0b0c68dd1495bf7f52a3975b317f4ef/case/system/controlDict" at line 2 to 41
    Entry symmPatches is not a dictionary
--> FOAM Warning : 
    From bool Foam::functionObjectList::read()
    in file db/functionObjects/functionObjectList/functionObjectList.C at line 1013
    Reading "/home/greole/data/code/exasim_project/micro_benchmarks/WindsorBody/workspace/d0b0c68dd1495bf7f52a3975b317f4ef/case/system/controlDict" at line 2 to 41
    Entry Uinf is not a dictionary
--> FOAM Warning : 
    From bool Foam::functionObjectList::read()
    in file db/functionObjects/functionObjectList/functionObjectList.C at line 1013
    Reading "/home/greole/data/code/exasim_project/micro_benchmarks/WindsorBody/workspace/d0b0c68dd1495bf7f52a3975b317f4ef/case/system/controlDict" at line 2 to 41
    Entry UinfMag is not a dictionary
--> FOAM Warning : 
    From bool Foam::functionObjectList::read()
    in file db/functionObjects/functionObjectList/functionObjectList.C at line 1013
    Reading "/home/greole/data/code/exasim_project/micro_benchmarks/WindsorBody/workspace/d0b0c68dd1495bf7f52a3975b317f4ef/case/system/controlDict" at line 2 to 41
    Entry nu is not a dictionary
--> FOAM Warning : 
    From bool Foam::functionObjectList::read()
    in file db/functionObjects/functionObjectList/functionObjectList.C at line 1013
    Reading "/home/greole/data/code/exasim_project/micro_benchmarks/WindsorBody/workspace/d0b0c68dd1495bf7f52a3975b317f4ef/case/system/controlDict" at line 2 to 41
    Entry pref is not a dictionary
--> FOAM Warning : 
    From bool Foam::functionObjectList::read()
    in file db/functionObjects/functionObjectList/functionObjectList.C at line 1013
    Reading "/home/greole/data/code/exasim_project/micro_benchmarks/WindsorBody/workspace/d0b0c68dd1495bf7f52a3975b317f4ef/case/system/controlDict" at line 2 to 41
    Entry viscRatio is not a dictionary
--> FOAM Warning : 
    From bool Foam::functionObjectList::read()
    in file db/functionObjects/functionObjectList/functionObjectList.C at line 1013
    Reading "/home/greole/data/code/exasim_project/micro_benchmarks/WindsorBody/workspace/d0b0c68dd1495bf7f52a3975b317f4ef/case/system/controlDict" at line 2 to 41
    Entry Tu is not a dictionary
--> FOAM Warning : 
    From bool Foam::functionObjectList::read()
    in file db/functionObjects/functionObjectList/functionObjectList.C at line 1013
    Reading "/home/greole/data/code/exasim_project/micro_benchmarks/WindsorBody/workspace/d0b0c68dd1495bf7f52a3975b317f4ef/case/system/controlDict" at line 2 to 41
    Entry LESturbModel is not a dictionary
--> FOAM Warning : 
    From bool Foam::functionObjectList::read()
    in file db/functionObjects/functionObjectList/functionObjectList.C at line 1013
    Reading "/home/greole/data/code/exasim_project/micro_benchmarks/WindsorBody/workspace/d0b0c68dd1495bf7f52a3975b317f4ef/case/system/controlDict" at line 2 to 41
    Entry RASturbModel is not a dictionary
--> FOAM Warning : 
    From bool Foam::functionObjectList::read()
    in file db/functionObjects/functionObjectList/functionObjectList.C at line 1013
    Reading "/home/greole/data/code/exasim_project/micro_benchmarks/WindsorBody/workspace/d0b0c68dd1495bf7f52a3975b317f4ef/case/system/controlDict" at line 2 to 41
    Entry deltaTurb is not a dictionary
--> FOAM Warning : 
    From bool Foam::functionObjectList::read()
    in file db/functionObjects/functionObjectList/functionObjectList.C at line 1013
    Reading "/home/greole/data/code/exasim_project/micro_benchmarks/WindsorBody/workspace/d0b0c68dd1495bf7f52a3975b317f4ef/case/system/controlDict" at line 2 to 41
    Entry dt is not a dictionary
--> FOAM Warning : 
    From bool Foam::functionObjectList::read()
    in file db/functionObjects/functionObjectList/functionObjectList.C at line 1013
    Reading "/home/greole/data/code/exasim_project/micro_benchmarks/WindsorBody/workspace/d0b0c68dd1495bf7f52a3975b317f4ef/case/system/controlDict" at line 2 to 41
    Entry tAvg is not a dictionary
--> FOAM Warning : 
    From bool Foam::functionObjectList::read()
    in file db/functionObjects/functionObjectList/functionObjectList.C at line 1013
    Reading "/home/greole/data/code/exasim_project/micro_benchmarks/WindsorBody/workspace/d0b0c68dd1495bf7f52a3975b317f4ef/case/system/controlDict" at line 2 to 41
    Entry tEnd is not a dictionary
--> FOAM Warning : 
    From bool Foam::functionObjectList::read()
    in file db/functionObjects/functionObjectList/functionObjectList.C at line 1013
    Reading "/home/greole/data/code/exasim_project/micro_benchmarks/WindsorBody/workspace/d0b0c68dd1495bf7f52a3975b317f4ef/case/system/controlDict" at line 2 to 41
    Entry writeInterval_ is not a dictionary
--> FOAM Warning : 
    From bool Foam::functionObjectList::read()
    in file db/functionObjects/functionObjectList/functionObjectList.C at line 1013
    Reading "/home/greole/data/code/exasim_project/micro_benchmarks/WindsorBody/workspace/d0b0c68dd1495bf7f52a3975b317f4ef/case/system/controlDict" at line 2 to 41
    Entry nCores is not a dictionary
--> FOAM Warning : 
    From bool Foam::functionObjectList::read()
    in file db/functionObjects/functionObjectList/functionObjectList.C at line 1013
    Reading "/home/greole/data/code/exasim_project/micro_benchmarks/WindsorBody/workspace/d0b0c68dd1495bf7f52a3975b317f4ef/case/system/controlDict" at line 2 to 41
    Entry interpScheme is not a dictionary
--> FOAM Warning : 
    From bool Foam::functionObjectList::read()
    in file db/functionObjects/functionObjectList/functionObjectList.C at line 1013
    Reading "/home/greole/data/code/exasim_project/micro_benchmarks/WindsorBody/workspace/d0b0c68dd1495bf7f52a3975b317f4ef/case/system/controlDict" at line 2 to 41
    Entry probeField is not a dictionary
wallShearStress wallShearStress:
    processing wall patches: 
        Windsor_Body
        CFDWT_Floor
        Windsor_Pins
        Windsor_Base
        Windsor_Body_2
        CFDWT_Floor_2
        Windsor_Pins_2
        Windsor_Base_2
        Windsor_Body_3
        CFDWT_Floor_3
        Windsor_Pins_3
        Windsor_Base_3

pressure calc_cp:
    Operating mode: staticCoeff
    Not including hydrostatic effects

forceCoeffs forceCoeffsAll:
    rho: rhoInf
    Freestream density (rhoInf) set to 1
    Not including porosity effects

forceCoeffs dragCoeffBase:
    rho: rhoInf
    Freestream density (rhoInf) set to 1
    Not including porosity effects

Time = 1

velocityDampingConstraint velocityDamping damped 0 (0%) of cells
[INFO] MatrixAssemblyU: 2660.897 [ms]
smoothSolver:  Solving for Ux, Initial residual = 0.9999999999991637, Final residual = 0.08731797386317706, No Iterations 15
smoothSolver:  Solving for Uy, Initial residual = 1, Final residual = 0.08970563155359472, No Iterations 31
smoothSolver:  Solving for Uz, Initial residual = 1, Final residual = 0.03285841130865035, No Iterations 2
[INFO] MomentumPredictor: 2782.49 [ms]
[INFO] MatrixAssemblyPI: 546.6660000000001 [ms]
[INFO] MatrixAssemblyPII: 266.982 [ms]
DICPCG:  Solving for p, Initial residual = 1, Final residual = 0.009539487914296979, No Iterations 420
[INFO] SolveP: 25693.731 [ms]
time step continuity errors : sum local = 0.003500087903967702, global = 7.949165269726496e-05, cumulative = 7.949165269726496e-05
[INFO] postSolveP: 156.198 [ms]
smoothSolver:  Solving for nuTilda, Initial residual = 0.9999999956685862, Final residual = 0.0643036439137509, No Iterations 3
[INFO] TimeStep: 33849.887 [ms]
ExecutionTime = 55.43 s  ClockTime = 56 s

--> FOAM Warning : 
    From virtual bool Foam::functionObjects::fieldSelection::checkSelection()
    in file functionObjects/fieldSelections/fieldSelection/fieldSelection.C at line 166
    Field k not found
--> FOAM Warning : 
    From virtual bool Foam::functionObjects::fieldSelection::checkSelection()
    in file functionObjects/fieldSelections/fieldSelection/fieldSelection.C at line 166
    Field gammaInt not found
--> FOAM Warning : 
    From virtual bool Foam::functionObjects::fieldSelection::checkSelection()
    in file functionObjects/fieldSelections/fieldSelection/fieldSelection.C at line 166
    Field omega not found
--> FOAM Warning : 
    From virtual bool Foam::functionObjects::fieldSelection::checkSelection()
    in file functionObjects/fieldSelections/fieldSelection/fieldSelection.C at line 166
    Field ReThetat not found
--> FOAM Warning : 
    From virtual bool Foam::functionObjects::fieldSelection::checkSelection()
    in file functionObjects/fieldSelections/fieldSelection/fieldSelection.C at line 166
    Field epsilon not found
--> FOAM Warning : 
    From virtual bool Foam::functionObjects::solverFieldSelection::updateSelection()
    in file functionObjects/fieldSelections/solverFieldSelection/solverFieldSelection.C at line 85
    Valid solver fields are: 3(U nuTilda p)Time = 2

velocityDampingConstraint velocityDamping damped 0 (0%) of cells
[INFO] MatrixAssemblyU: 2542.524 [ms]
smoothSolver:  Solving for Ux, Initial residual = 0.213082518886547, Final residual = 0.01841329383608555, No Iterations 13
smoothSolver:  Solving for Uy, Initial residual = 0.3545458670273187, Final residual = 0.03307909496639257, No Iterations 13
smoothSolver:  Solving for Uz, Initial residual = 0.3287727991964567, Final residual = 0.02813111129106391, No Iterations 13
[INFO] MomentumPredictor: 2333.617 [ms]
[INFO] MatrixAssemblyPI: 535.648 [ms]
[INFO] MatrixAssemblyPII: 256.517 [ms]
DICPCG:  Solving for p, Initial residual = 0.2098095384980383, Final residual = 0.002059227339544348, No Iterations 339
[INFO] SolveP: 20801.95 [ms]
time step continuity errors : sum local = 0.0422001928911763, global = 0.001762672456357422, cumulative = 0.001842164109054687
[INFO] postSolveP: 159.321 [ms]
smoothSolver:  Solving for nuTilda, Initial residual = 0.4060282868973482, Final residual = 0.02532696793535523, No Iterations 1
[INFO] TimeStep: 28255.223 [ms]
ExecutionTime = 85.59999999999999 s  ClockTime = 86 s

Time = 3

velocityDampingConstraint velocityDamping damped 2494 (0.0131808372822995%) of cells
[INFO] MatrixAssemblyU: 2575.908 [ms]
smoothSolver:  Solving for Ux, Initial residual = 0.1249183664506295, Final residual = 0.01178045822022876, No Iterations 9
smoothSolver:  Solving for Uy, Initial residual = 0.2052562762377793, Final residual = 0.01966453507664656, No Iterations 10
smoothSolver:  Solving for Uz, Initial residual = 0.219015330252631, Final residual = 0.02141372637036977, No Iterations 9
[INFO] MomentumPredictor: 1802.344 [ms]
[INFO] MatrixAssemblyPI: 534.263 [ms]
[INFO] MatrixAssemblyPII: 254.836 [ms]
DICPCG:  Solving for p, Initial residual = 0.1187548322068264, Final residual = 0.001177107519729122, No Iterations 187
[INFO] SolveP: 11469.006 [ms]
time step continuity errors : sum local = 0.01314166126383431, global = -0.0009592103018292874, cumulative = 0.0008829538072254
[INFO] postSolveP: 133.391 [ms]
smoothSolver:  Solving for nuTilda, Initial residual = 0.2091467615606171, Final residual = 0.01313292212962784, No Iterations 2
[INFO] TimeStep: 18437.783 [ms]
ExecutionTime = 106 s  ClockTime = 107 s

Time = 4

velocityDampingConstraint velocityDamping damped 0 (0%) of cells
[INFO] MatrixAssemblyU: 2591.71 [ms]
smoothSolver:  Solving for Ux, Initial residual = 0.05385597576433456, Final residual = 0.004964536956864544, No Iterations 11
smoothSolver:  Solving for Uy, Initial residual = 0.1228575838557572, Final residual = 0.01104565715383363, No Iterations 11
smoothSolver:  Solving for Uz, Initial residual = 0.1338361531867582, Final residual = 0.01309950151544101, No Iterations 10
[INFO] MomentumPredictor: 1979.537 [ms]
[INFO] MatrixAssemblyPI: 547.903 [ms]
[INFO] MatrixAssemblyPII: 245.006 [ms]
DICPCG:  Solving for p, Initial residual = 0.1351753349013694, Final residual = 0.001345523090058257, No Iterations 107
[INFO] SolveP: 6598.223 [ms]
time step continuity errors : sum local = 0.0133957922554796, global = -0.002067941867241267, cumulative = -0.001184988060015867
[INFO] postSolveP: 144.423 [ms]
smoothSolver:  Solving for nuTilda, Initial residual = 0.1247416339508338, Final residual = 0.01050771146731736, No Iterations 2
[INFO] TimeStep: 13754.038 [ms]
ExecutionTime = 121.74 s  ClockTime = 123 s

Time = 5

velocityDampingConstraint velocityDamping damped 344 (0.001818046521696483%) of cells
[INFO] MatrixAssemblyU: 2607.71 [ms]
smoothSolver:  Solving for Ux, Initial residual = 0.04379570015434198, Final residual = 0.004199189096460414, No Iterations 10
smoothSolver:  Solving for Uy, Initial residual = 0.09777582455946769, Final residual = 0.009329700878858541, No Iterations 11
smoothSolver:  Solving for Uz, Initial residual = 0.1137830619730184, Final residual = 0.01136998736380167, No Iterations 10
[INFO] MomentumPredictor: 1943.743 [ms]
[INFO] MatrixAssemblyPI: 551.324 [ms]
[INFO] MatrixAssemblyPII: 248.941 [ms]
DICPCG:  Solving for p, Initial residual = 0.09735323942951907, Final residual = 0.0009583872000194283, No Iterations 230
[INFO] SolveP: 14149.633 [ms]
time step continuity errors : sum local = 0.007571130992295652, global = -0.0002243538005698583, cumulative = -0.001409341860585726
[INFO] postSolveP: 138.096 [ms]
smoothSolver:  Solving for nuTilda, Initial residual = 0.0708467384685631, Final residual = 0.004308021597495699, No Iterations 3
[INFO] TimeStep: 21347.287 [ms]
ExecutionTime = 145.06 s  ClockTime = 146 s

Time = 6

velocityDampingConstraint velocityDamping damped 0 (0%) of cells
[INFO] MatrixAssemblyU: 2573.137 [ms]
smoothSolver:  Solving for Ux, Initial residual = 0.02993197380331112, Final residual = 0.002652545563276192, No Iterations 12
smoothSolver:  Solving for Uy, Initial residual = 0.07457212389584109, Final residual = 0.006864938781169645, No Iterations 12
smoothSolver:  Solving for Uz, Initial residual = 0.08112868527348738, Final residual = 0.006922177108114389, No Iterations 12
[INFO] MomentumPredictor: 2174.299 [ms]
[INFO] MatrixAssemblyPI: 533.827 [ms]
[INFO] MatrixAssemblyPII: 254.467 [ms]
DICPCG:  Solving for p, Initial residual = 0.09747234681980467, Final residual = 0.0009509603333197895, No Iterations 139
[INFO] SolveP: 8560.725 [ms]
time step continuity errors : sum local = 0.006915179881612063, global = 0.0006002438891251563, cumulative = -0.0008090979714605694
[INFO] postSolveP: 147.089 [ms]
smoothSolver:  Solving for nuTilda, Initial residual = 0.06420124446068616, Final residual = 0.003002668306286425, No Iterations 3
[INFO] TimeStep: 15912.082 [ms]
ExecutionTime = 162.93 s  ClockTime = 164 s

Time = 7

velocityDampingConstraint velocityDamping damped 39 (0.0002061157393783803%) of cells
[INFO] MatrixAssemblyU: 2548.503 [ms]
smoothSolver:  Solving for Ux, Initial residual = 0.0272047910639599, Final residual = 0.002430989477463136, No Iterations 12
smoothSolver:  Solving for Uy, Initial residual = 0.06742715205971499, Final residual = 0.006385050069504941, No Iterations 12
smoothSolver:  Solving for Uz, Initial residual = 0.07109242373140877, Final residual = 0.006221431124512389, No Iterations 12
[INFO] MomentumPredictor: 2177.448 [ms]
[INFO] MatrixAssemblyPI: 538.505 [ms]
[INFO] MatrixAssemblyPII: 254.29 [ms]
DICPCG:  Solving for p, Initial residual = 0.08306722594613515, Final residual = 0.0008272329127891911, No Iterations 122
[INFO] SolveP: 7531.238 [ms]
time step continuity errors : sum local = 0.006043585529657242, global = 0.0007911423063153535, cumulative = -1.795566514521587e-05
[INFO] postSolveP: 126.998 [ms]
smoothSolver:  Solving for nuTilda, Initial residual = 0.04909473057398141, Final residual = 0.003228758617890193, No Iterations 3
[INFO] TimeStep: 14908.482 [ms]
ExecutionTime = 179.77 s  ClockTime = 181 s

Time = 8

velocityDampingConstraint velocityDamping damped 0 (0%) of cells
[INFO] MatrixAssemblyU: 2589.311 [ms]
smoothSolver:  Solving for Ux, Initial residual = 0.02311587838912574, Final residual = 0.002139643168250802, No Iterations 12
smoothSolver:  Solving for Uy, Initial residual = 0.05993097597768808, Final residual = 0.005883092980878178, No Iterations 12
smoothSolver:  Solving for Uz, Initial residual = 0.06181774536901685, Final residual = 0.005591707569022087, No Iterations 12
[INFO] MomentumPredictor: 2184.456 [ms]
[INFO] MatrixAssemblyPI: 537.2140000000001 [ms]
[INFO] MatrixAssemblyPII: 259.293 [ms]
DICPCG:  Solving for p, Initial residual = 0.0750526360649557, Final residual = 0.0007397374132825546, No Iterations 117
[INFO] SolveP: 7222.875 [ms]
time step continuity errors : sum local = 0.005503617104367396, global = 0.0009454485511824556, cumulative = 0.0009274928860372397
[INFO] postSolveP: 134.034 [ms]
smoothSolver:  Solving for nuTilda, Initial residual = 0.06531728903860412, Final residual = 0.005861028984649708, No Iterations 2
[INFO] TimeStep: 14536.975 [ms]
ExecutionTime = 196.28 s  ClockTime = 198 s

Time = 9

velocityDampingConstraint velocityDamping damped 0 (0%) of cells
[INFO] MatrixAssemblyU: 2545.549 [ms]
smoothSolver:  Solving for Ux, Initial residual = 0.02035628535715688, Final residual = 0.001901181181790463, No Iterations 12
smoothSolver:  Solving for Uy, Initial residual = 0.05419620799395774, Final residual = 0.00540253196935381, No Iterations 12
smoothSolver:  Solving for Uz, Initial residual = 0.05508022999909089, Final residual = 0.005119929968820628, No Iterations 12
[INFO] MomentumPredictor: 2179.95 [ms]
[INFO] MatrixAssemblyPI: 542.521 [ms]
[INFO] MatrixAssemblyPII: 249.892 [ms]
DICPCG:  Solving for p, Initial residual = 0.06839145047175277, Final residual = 0.0006793417363691669, No Iterations 118
[INFO] SolveP: 7266.361 [ms]
time step continuity errors : sum local = 0.005134955033424001, global = 0.001131791017962437, cumulative = 0.002059283903999677
[INFO] postSolveP: 139.154 [ms]
smoothSolver:  Solving for nuTilda, Initial residual = 0.04412503003772483, Final residual = 0.003200517425862903, No Iterations 3
[INFO] TimeStep: 14614.857 [ms]
ExecutionTime = 212.83 s  ClockTime = 214 s

Time = 10

velocityDampingConstraint velocityDamping damped 0 (0%) of cells
[INFO] MatrixAssemblyU: 2547.158 [ms]
smoothSolver:  Solving for Ux, Initial residual = 0.01834749657185616, Final residual = 0.001726676610938625, No Iterations 12
smoothSolver:  Solving for Uy, Initial residual = 0.05005684816560407, Final residual = 0.004983897271329792, No Iterations 12
smoothSolver:  Solving for Uz, Initial residual = 0.05045910094097353, Final residual = 0.004757267383364348, No Iterations 12
[INFO] MomentumPredictor: 2172.079 [ms]
[INFO] MatrixAssemblyPI: 530.599 [ms]
[INFO] MatrixAssemblyPII: 254.854 [ms]
DICPCG:  Solving for p, Initial residual = 0.06202458702220862, Final residual = 0.0006155863575343289, No Iterations 230
[INFO] SolveP: 14081.211 [ms]
time step continuity errors : sum local = 0.00464477860568785, global = 9.515251123932419e-05, cumulative = 0.002154436415239001
[INFO] postSolveP: 125.385 [ms]
smoothSolver:  Solving for nuTilda, Initial residual = 0.06964011932149163, Final residual = 0.00548757283608707, No Iterations 2
[INFO] TimeStep: 21325.545 [ms]
ExecutionTime = 236.1 s  ClockTime = 238 s

Time = 11

velocityDampingConstraint velocityDamping damped 0 (0%) of cells
[INFO] MatrixAssemblyU: 2526.01 [ms]
smoothSolver:  Solving for Ux, Initial residual = 0.01673582589021187, Final residual = 0.001601409751677981, No Iterations 12
smoothSolver:  Solving for Uy, Initial residual = 0.04755128133171743, Final residual = 0.004707726098494607, No Iterations 12
smoothSolver:  Solving for Uz, Initial residual = 0.04756425556177534, Final residual = 0.004520297541021085, No Iterations 12
[INFO] MomentumPredictor: 2180.67 [ms]
[INFO] MatrixAssemblyPI: 536.456 [ms]
[INFO] MatrixAssemblyPII: 253.023 [ms]
DICPCG:  Solving for p, Initial residual = 0.05451434284292631, Final residual = 0.0005449299144504447, No Iterations 107
[INFO] SolveP: 6622.679 [ms]
time step continuity errors : sum local = 0.004358162811352219, global = -0.0005152187339234348, cumulative = 0.001639217681315566
[INFO] postSolveP: 139.543 [ms]
smoothSolver:  Solving for nuTilda, Initial residual = 0.039122377154499, Final residual = 0.003025836838411395, No Iterations 3
[INFO] TimeStep: 13968.533 [ms]
ExecutionTime = 252.02 s  ClockTime = 254 s

Time = 12

velocityDampingConstraint velocityDamping damped 0 (0%) of cells
[INFO] MatrixAssemblyU: 2539.682 [ms]
smoothSolver:  Solving for Ux, Initial residual = 0.01551929492401734, Final residual = 0.001513575049302691, No Iterations 12
smoothSolver:  Solving for Uy, Initial residual = 0.04528074697008738, Final residual = 0.004443934060940669, No Iterations 12
smoothSolver:  Solving for Uz, Initial residual = 0.0447775753930077, Final residual = 0.004272979319263834, No Iterations 12
[INFO] MomentumPredictor: 2169.72 [ms]
[INFO] MatrixAssemblyPI: 527.229 [ms]
[INFO] MatrixAssemblyPII: 255.01 [ms]
DICPCG:  Solving for p, Initial residual = 0.05162746653063666, Final residual = 0.0004999402803337062, No Iterations 115
[INFO] SolveP: 7093.962 [ms]
time step continuity errors : sum local = 0.003948368455847712, global = -0.0006832444812602522, cumulative = 0.0009559732000553142
[INFO] postSolveP: 132.112 [ms]
smoothSolver:  Solving for nuTilda, Initial residual = 0.06547408221257754, Final residual = 0.005100389675906271, No Iterations 2
[INFO] TimeStep: 14334.264 [ms]
ExecutionTime = 268.36 s  ClockTime = 270 s

Time = 13

velocityDampingConstraint velocityDamping damped 0 (0%) of cells
[INFO] MatrixAssemblyU: 2522.144 [ms]
smoothSolver:  Solving for Ux, Initial residual = 0.01449725954683421, Final residual = 0.001441536537410086, No Iterations 12
smoothSolver:  Solving for Uy, Initial residual = 0.04336228325367519, Final residual = 0.004243589734289085, No Iterations 12
smoothSolver:  Solving for Uz, Initial residual = 0.04294416465286743, Final residual = 0.004124237787161326, No Iterations 12
[INFO] MomentumPredictor: 2181.231 [ms]
[INFO] MatrixAssemblyPI: 537.95 [ms]
[INFO] MatrixAssemblyPII: 251.92 [ms]
DICPCG:  Solving for p, Initial residual = 0.04911157764749942, Final residual = 0.0004906381965343493, No Iterations 114
[INFO] SolveP: 7044.828 [ms]
time step continuity errors : sum local = 0.003853288189864149, global = -0.0007494276483786974, cumulative = 0.0002065455516766168
[INFO] postSolveP: 136.24 [ms]
smoothSolver:  Solving for nuTilda, Initial residual = 0.03469710760912922, Final residual = 0.002828663823816923, No Iterations 3
[INFO] TimeStep: 14373.532 [ms]
ExecutionTime = 284.65 s  ClockTime = 287 s

Time = 14

velocityDampingConstraint velocityDamping damped 0 (0%) of cells
[INFO] MatrixAssemblyU: 2542.746 [ms]
smoothSolver:  Solving for Ux, Initial residual = 0.01367998041237263, Final residual = 0.001171581771807655, No Iterations 13
smoothSolver:  Solving for Uy, Initial residual = 0.04156276591055022, Final residual = 0.004081543589691568, No Iterations 12
smoothSolver:  Solving for Uz, Initial residual = 0.04198076207277562, Final residual = 0.004051414923563645, No Iterations 12
[INFO] MomentumPredictor: 2225.866 [ms]
[INFO] MatrixAssemblyPI: 549.317 [ms]
[INFO] MatrixAssemblyPII: 250.583 [ms]
DICPCG:  Solving for p, Initial residual = 0.04699217087030889, Final residual = 0.0004634744183498625, No Iterations 109
[INFO] SolveP: 6713.279 [ms]
time step continuity errors : sum local = 0.003629594640862023, global = -0.0007380858151755776, cumulative = -0.0005315402634989609
[INFO] postSolveP: 136.227 [ms]
smoothSolver:  Solving for nuTilda, Initial residual = 0.05810418538064425, Final residual = 0.0048004345369896, No Iterations 2
[INFO] TimeStep: 14024.453 [ms]
ExecutionTime = 300.64 s  ClockTime = 303 s

Time = 15

velocityDampingConstraint velocityDamping damped 0 (0%) of cells
[INFO] MatrixAssemblyU: 2525.69 [ms]
smoothSolver:  Solving for Ux, Initial residual = 0.01282867629955035, Final residual = 0.001109711737793651, No Iterations 13
smoothSolver:  Solving for Uy, Initial residual = 0.04017340214285602, Final residual = 0.003974023734522166, No Iterations 12
smoothSolver:  Solving for Uz, Initial residual = 0.04167531651886117, Final residual = 0.004050559125313202, No Iterations 12
[INFO] MomentumPredictor: 2233.985 [ms]
[INFO] MatrixAssemblyPI: 547.037 [ms]
[INFO] MatrixAssemblyPII: 256.965 [ms]
DICPCG:  Solving for p, Initial residual = 0.04563158047732469, Final residual = 0.0004528070285372284, No Iterations 102
[INFO] SolveP: 6326.095 [ms]
time step continuity errors : sum local = 0.003544438024692304, global = -0.0006539815756740488, cumulative = -0.00118552183917301
[INFO] postSolveP: 130.178 [ms]
smoothSolver:  Solving for nuTilda, Initial residual = 0.03134321146990487, Final residual = 0.002662119674979448, No Iterations 3
[INFO] TimeStep: 13693.361 [ms]
ExecutionTime = 316.33 s  ClockTime = 318 s

Time = 16

velocityDampingConstraint velocityDamping damped 0 (0%) of cells
[INFO] MatrixAssemblyU: 2515.575 [ms]
smoothSolver:  Solving for Ux, Initial residual = 0.01220435667520021, Final residual = 0.001054994065756538, No Iterations 13
smoothSolver:  Solving for Uy, Initial residual = 0.03929187449496889, Final residual = 0.003907140552256007, No Iterations 12
smoothSolver:  Solving for Uz, Initial residual = 0.04161149835505619, Final residual = 0.004056914582079807, No Iterations 12
[INFO] MomentumPredictor: 2226.979 [ms]
[INFO] MatrixAssemblyPI: 535.313 [ms]
[INFO] MatrixAssemblyPII: 255.255 [ms]
DICPCG:  Solving for p, Initial residual = 0.04449805278926246, Final residual = 0.0004404042171068649, No Iterations 101
[INFO] SolveP: 6241.508 [ms]
time step continuity errors : sum local = 0.003446494397992552, global = -0.0004854262009092797, cumulative = -0.001670948040082289
[INFO] postSolveP: 132.923 [ms]
smoothSolver:  Solving for nuTilda, Initial residual = 0.05167437468204619, Final residual = 0.004552346294310675, No Iterations 2
[INFO] TimeStep: 13525.534 [ms]
ExecutionTime = 331.76 s  ClockTime = 334 s

Time = 17

velocityDampingConstraint velocityDamping damped 0 (0%) of cells
[INFO] MatrixAssemblyU: 2520.121 [ms]
smoothSolver:  Solving for Ux, Initial residual = 0.01159131223390303, Final residual = 0.001007350834172694, No Iterations 13
smoothSolver:  Solving for Uy, Initial residual = 0.03876433744621989, Final residual = 0.003298476886007213, No Iterations 13
smoothSolver:  Solving for Uz, Initial residual = 0.04155145822662668, Final residual = 0.004057686832926045, No Iterations 12
[INFO] MomentumPredictor: 2275.156 [ms]
[INFO] MatrixAssemblyPI: 526.773 [ms]
[INFO] MatrixAssemblyPII: 262.767 [ms]
DICPCG:  Solving for p, Initial residual = 0.0441817579543589, Final residual = 0.000441003697141632, No Iterations 99
[INFO] SolveP: 6137.06 [ms]
time step continuity errors : sum local = 0.003461335946927968, global = -0.0002627393673374864, cumulative = -0.001933687407419776
[INFO] postSolveP: 138.665 [ms]
smoothSolver:  Solving for nuTilda, Initial residual = 0.02888628761575577, Final residual = 0.002513410832470591, No Iterations 3
[INFO] TimeStep: 13507.395 [ms]
ExecutionTime = 347.26 s  ClockTime = 349 s

Time = 18

velocityDampingConstraint velocityDamping damped 0 (0%) of cells
[INFO] MatrixAssemblyU: 2513.822 [ms]
smoothSolver:  Solving for Ux, Initial residual = 0.01125548883916492, Final residual = 0.0009685252334152991, No Iterations 13
smoothSolver:  Solving for Uy, Initial residual = 0.0385129736985206, Final residual = 0.003287578375193231, No Iterations 13
smoothSolver:  Solving for Uz, Initial residual = 0.04181871846010567, Final residual = 0.004068916185672272, No Iterations 12
[INFO] MomentumPredictor: 2267.806 [ms]
[INFO] MatrixAssemblyPI: 538.303 [ms]
[INFO] MatrixAssemblyPII: 249.16 [ms]
DICPCG:  Solving for p, Initial residual = 0.04413160994739915, Final residual = 0.0004337045633970685, No Iterations 105
[INFO] SolveP: 6476.631 [ms]
time step continuity errors : sum local = 0.003419035395085036, global = 4.122437690705106e-06, cumulative = -0.001929564969729071
[INFO] postSolveP: 130.65 [ms]
smoothSolver:  Solving for nuTilda, Initial residual = 0.04635264096962524, Final residual = 0.004302010071857279, No Iterations 2
[INFO] TimeStep: 13806.113 [ms]
ExecutionTime = 362.95 s  ClockTime = 365 s

Time = 19

velocityDampingConstraint velocityDamping damped 0 (0%) of cells
[INFO] MatrixAssemblyU: 2509.856 [ms]
smoothSolver:  Solving for Ux, Initial residual = 0.01090757535748542, Final residual = 0.0009379870797670308, No Iterations 13
smoothSolver:  Solving for Uy, Initial residual = 0.03884225317331587, Final residual = 0.003316486897795803, No Iterations 13
smoothSolver:  Solving for Uz, Initial residual = 0.04254360159214238, Final residual = 0.004110645554976549, No Iterations 12
[INFO] MomentumPredictor: 2273.143 [ms]
[INFO] MatrixAssemblyPI: 530.336 [ms]
[INFO] MatrixAssemblyPII: 259.425 [ms]
DICPCG:  Solving for p, Initial residual = 0.04440250431836907, Final residual = 0.0004398401156214845, No Iterations 114
[INFO] SolveP: 7028.584 [ms]
time step continuity errors : sum local = 0.003486959041036222, global = 0.000290198806359734, cumulative = -0.001639366163369337
[INFO] postSolveP: 130.408 [ms]
smoothSolver:  Solving for nuTilda, Initial residual = 0.02695648672706933, Final residual = 0.002364353287165765, No Iterations 3
[INFO] TimeStep: 14381.382 [ms]
ExecutionTime = 379.3 s  ClockTime = 382 s

Time = 20

velocityDampingConstraint velocityDamping damped 0 (0%) of cells
[INFO] MatrixAssemblyU: 2527.432 [ms]
smoothSolver:  Solving for Ux, Initial residual = 0.01073230381638629, Final residual = 0.0009183754189613993, No Iterations 13
smoothSolver:  Solving for Uy, Initial residual = 0.03925126086323429, Final residual = 0.003917645760628912, No Iterations 12
smoothSolver:  Solving for Uz, Initial residual = 0.04312997471886879, Final residual = 0.004140386052360765, No Iterations 12
[INFO] MomentumPredictor: 2215.516 [ms]
[INFO] MatrixAssemblyPI: 532.508 [ms]
[INFO] MatrixAssemblyPII: 255.896 [ms]
DICPCG:  Solving for p, Initial residual = 0.04429352292058274, Final residual = 0.0004412139625253491, No Iterations 121
[INFO] SolveP: 7481.042 [ms]
time step continuity errors : sum local = 0.003532459862186115, global = 0.0005445685005695491, cumulative = -0.001094797662799787
[INFO] postSolveP: 133.936 [ms]
smoothSolver:  Solving for nuTilda, Initial residual = 0.04181849519932256, Final residual = 0.00404819059466487, No Iterations 2
[INFO] TimeStep: 14779.064 [ms]
ExecutionTime = 395.98 s  ClockTime = 398 s

Time = 21

velocityDampingConstraint velocityDamping damped 0 (0%) of cells
[INFO] MatrixAssemblyU: 2494.353 [ms]
smoothSolver:  Solving for Ux, Initial residual = 0.01052705114205489, Final residual = 0.0009039793747420601, No Iterations 13
smoothSolver:  Solving for Uy, Initial residual = 0.03989377294785874, Final residual = 0.003965398742207873, No Iterations 12
smoothSolver:  Solving for Uz, Initial residual = 0.04346072867042815, Final residual = 0.004136244523489906, No Iterations 12
[INFO] MomentumPredictor: 2225.463 [ms]
[INFO] MatrixAssemblyPI: 529.842 [ms]
[INFO] MatrixAssemblyPII: 258.512 [ms]
DICPCG:  Solving for p, Initial residual = 0.04429552518235942, Final residual = 0.0004331851977295598, No Iterations 131
[INFO] SolveP: 8057.47 [ms]
time step continuity errors : sum local = 0.003514802088402039, global = 0.0007401777850464638, cumulative = -0.0003546198777533237
[INFO] postSolveP: 131.313 [ms]
smoothSolver:  Solving for nuTilda, Initial residual = 0.02516568981172914, Final residual = 0.002219180928742865, No Iterations 3
[INFO] TimeStep: 15360.5 [ms]
ExecutionTime = 413.37 s  ClockTime = 416 s

Time = 22

velocityDampingConstraint velocityDamping damped 0 (0%) of cells
[INFO] MatrixAssemblyU: 2481.935 [ms]
smoothSolver:  Solving for Ux, Initial residual = 0.01048778550294021, Final residual = 0.001047216641194053, No Iterations 12
smoothSolver:  Solving for Uy, Initial residual = 0.04052866977396844, Final residual = 0.003988407409607392, No Iterations 12
smoothSolver:  Solving for Uz, Initial residual = 0.04336197034241455, Final residual = 0.004094879507303296, No Iterations 12
[INFO] MomentumPredictor: 2172.886 [ms]
[INFO] MatrixAssemblyPI: 527.984 [ms]
[INFO] MatrixAssemblyPII: 252.812 [ms]
DICPCG:  Solving for p, Initial residual = 0.0439558754167868, Final residual = 0.0004323376003249135, No Iterations 234
[INFO] SolveP: 14334.057 [ms]
time step continuity errors : sum local = 0.003561616799946309, global = 2.406379816412643e-05, cumulative = -0.0003305560795891973
[INFO] postSolveP: 142.192 [ms]
smoothSolver:  Solving for nuTilda, Initial residual = 0.03796030662376322, Final residual = 0.002018645288911283, No Iterations 3
[INFO] TimeStep: 21636.601 [ms]
ExecutionTime = 436.87 s  ClockTime = 440 s

Time = 23

velocityDampingConstraint velocityDamping damped 0 (0%) of cells
[INFO] MatrixAssemblyU: 2498.54 [ms]
smoothSolver:  Solving for Ux, Initial residual = 0.01040227177086147, Final residual = 0.001038856956500075, No Iterations 12
smoothSolver:  Solving for Uy, Initial residual = 0.04130804034158574, Final residual = 0.003993813199001214, No Iterations 12
smoothSolver:  Solving for Uz, Initial residual = 0.04310712099999017, Final residual = 0.004015196475996051, No Iterations 12
[INFO] MomentumPredictor: 2198.057 [ms]
[INFO] MatrixAssemblyPI: 535.826 [ms]
[INFO] MatrixAssemblyPII: 258.537 [ms]
DICPCG:  Solving for p, Initial residual = 0.04242757618096715, Final residual = 0.0004235692036587697, No Iterations 113
[INFO] SolveP: 6976.141 [ms]
time step continuity errors : sum local = 0.003651689706041363, global = -9.259116389271682e-05, cumulative = -0.0004231472434819141
[INFO] postSolveP: 144.148 [ms]
smoothSolver:  Solving for nuTilda, Initial residual = 0.02334625363258927, Final residual = 0.002087810488921758, No Iterations 3
[INFO] TimeStep: 14266.252 [ms]
ExecutionTime = 453.12 s  ClockTime = 456 s

Time = 24

velocityDampingConstraint velocityDamping damped 0 (0%) of cells
[INFO] MatrixAssemblyU: 2523.595 [ms]
smoothSolver:  Solving for Ux, Initial residual = 0.01038751000918612, Final residual = 0.001034307861337493, No Iterations 12
smoothSolver:  Solving for Uy, Initial residual = 0.04180282631008868, Final residual = 0.004025585160724595, No Iterations 12
smoothSolver:  Solving for Uz, Initial residual = 0.04249035896882632, Final residual = 0.003929541112541938, No Iterations 12
[INFO] MomentumPredictor: 2169.725 [ms]
[INFO] MatrixAssemblyPI: 536.325 [ms]
[INFO] MatrixAssemblyPII: 252.152 [ms]
DICPCG:  Solving for p, Initial residual = 0.04255159488579403, Final residual = 0.0004215528228612698, No Iterations 118
[INFO] SolveP: 7292.021 [ms]
time step continuity errors : sum local = 0.003645681996482099, global = -3.344686900501291e-05, cumulative = -0.0004565941124869271
[INFO] postSolveP: 131.095 [ms]
smoothSolver:  Solving for nuTilda, Initial residual = 0.0344569697942443, Final residual = 0.001909365527598638, No Iterations 3
[INFO] TimeStep: 14594.85 [ms]
ExecutionTime = 469.63 s  ClockTime = 472 s

Time = 25

velocityDampingConstraint velocityDamping damped 0 (0%) of cells
[INFO] MatrixAssemblyU: 2515.741 [ms]
smoothSolver:  Solving for Ux, Initial residual = 0.0103264246190761, Final residual = 0.0008848021097793973, No Iterations 13
smoothSolver:  Solving for Uy, Initial residual = 0.04261537655368034, Final residual = 0.004118656540939668, No Iterations 12
smoothSolver:  Solving for Uz, Initial residual = 0.04219559528190945, Final residual = 0.003895654087940405, No Iterations 12
[INFO] MomentumPredictor: 2221.352 [ms]
[INFO] MatrixAssemblyPI: 530.421 [ms]
[INFO] MatrixAssemblyPII: 253.261 [ms]
DICPCG:  Solving for p, Initial residual = 0.04216097775929088, Final residual = 0.0004136125853184911, No Iterations 122
[INFO] SolveP: 7553.489 [ms]
time step continuity errors : sum local = 0.003615223393022577, global = -2.799581780640965e-06, cumulative = -0.000459393694267568
[INFO] postSolveP: 138.804 [ms]
smoothSolver:  Solving for nuTilda, Initial residual = 0.02150341507195994, Final residual = 0.001956419668982683, No Iterations 3
[INFO] TimeStep: 14847.71 [ms]
ExecutionTime = 486.45 s  ClockTime = 489 s

Time = 26

velocityDampingConstraint velocityDamping damped 0 (0%) of cells
[INFO] MatrixAssemblyU: 2512.365 [ms]
smoothSolver:  Solving for Ux, Initial residual = 0.01039796466171989, Final residual = 0.001037425596745335, No Iterations 12
smoothSolver:  Solving for Uy, Initial residual = 0.04359126935265244, Final residual = 0.00427501950625778, No Iterations 12
smoothSolver:  Solving for Uz, Initial residual = 0.04223810239260096, Final residual = 0.003940586279910121, No Iterations 12
[INFO] MomentumPredictor: 2176.714 [ms]
[INFO] MatrixAssemblyPI: 538.059 [ms]
[INFO] MatrixAssemblyPII: 253.197 [ms]
DICPCG:  Solving for p, Initial residual = 0.0418546120936424, Final residual = 0.000417091208206853, No Iterations 115
[INFO] SolveP: 7108.615 [ms]
time step continuity errors : sum local = 0.003687530284206152, global = 7.606722879393882e-05, cumulative = -0.0003833264654736292
[INFO] postSolveP: 145.537 [ms]
smoothSolver:  Solving for nuTilda, Initial residual = 0.03148558561189232, Final residual = 0.00180374020764508, No Iterations 3
[INFO] TimeStep: 14392.737 [ms]
ExecutionTime = 502.81 s  ClockTime = 506 s

Time = 27

velocityDampingConstraint velocityDamping damped 0 (0%) of cells
[INFO] MatrixAssemblyU: 2504.065 [ms]
smoothSolver:  Solving for Ux, Initial residual = 0.01040969214730416, Final residual = 0.00103892527752439, No Iterations 12
smoothSolver:  Solving for Uy, Initial residual = 0.0446382288040548, Final residual = 0.00444317017338954, No Iterations 12
smoothSolver:  Solving for Uz, Initial residual = 0.04255132369976397, Final residual = 0.004019173690332399, No Iterations 12
[INFO] MomentumPredictor: 2174.106 [ms]
[INFO] MatrixAssemblyPI: 531.037 [ms]
[INFO] MatrixAssemblyPII: 253.739 [ms]
DICPCG:  Solving for p, Initial residual = 0.04223839747503486, Final residual = 0.0004182987870852315, No Iterations 114
[INFO] SolveP: 7030.7 [ms]
time step continuity errors : sum local = 0.003734150564330172, global = 0.0002398378707602776, cumulative = -0.0001434885947133515
[INFO] postSolveP: 136.894 [ms]
smoothSolver:  Solving for nuTilda, Initial residual = 0.0198215989084632, Final residual = 0.001831305474265672, No Iterations 3
[INFO] TimeStep: 14284.673 [ms]
ExecutionTime = 519.02 s  ClockTime = 522 s

Time = 28

velocityDampingConstraint velocityDamping damped 0 (0%) of cells
[INFO] MatrixAssemblyU: 2481.592 [ms]
smoothSolver:  Solving for Ux, Initial residual = 0.01055495881687116, Final residual = 0.001042294823482381, No Iterations 12
smoothSolver:  Solving for Uy, Initial residual = 0.04599942835814302, Final residual = 0.003943885538233634, No Iterations 13
smoothSolver:  Solving for Uz, Initial residual = 0.04354851417090429, Final residual = 0.004131312632024329, No Iterations 12
[INFO] MomentumPredictor: 2220.196 [ms]
[INFO] MatrixAssemblyPI: 531.33 [ms]
[INFO] MatrixAssemblyPII: 257.327 [ms]
DICPCG:  Solving for p, Initial residual = 0.0432154966824586, Final residual = 0.0004195529092820555, No Iterations 107
[INFO] SolveP: 6608.053 [ms]
time step continuity errors : sum local = 0.003789900607841482, global = 0.0004312945640632361, cumulative = 0.0002878059693498846
[INFO] postSolveP: 130.393 [ms]
smoothSolver:  Solving for nuTilda, Initial residual = 0.02895311313375067, Final residual = 0.001697054447278888, No Iterations 3
[INFO] TimeStep: 13874.83 [ms]
ExecutionTime = 534.86 s  ClockTime = 538 s

Time = 29

velocityDampingConstraint velocityDamping damped 0 (0%) of cells
[INFO] MatrixAssemblyU: 2494.476 [ms]
smoothSolver:  Solving for Ux, Initial residual = 0.01059206593412012, Final residual = 0.001043747114482693, No Iterations 12
smoothSolver:  Solving for Uy, Initial residual = 0.04755346324123033, Final residual = 0.004081474419336831, No Iterations 13
smoothSolver:  Solving for Uz, Initial residual = 0.04497396500314634, Final residual = 0.004274044019224647, No Iterations 12
[INFO] MomentumPredictor: 2235.959 [ms]
[INFO] MatrixAssemblyPI: 546.89 [ms]
[INFO] MatrixAssemblyPII: 254.569 [ms]
DICPCG:  Solving for p, Initial residual = 0.0441518601183207, Final residual = 0.0004404714437156692, No Iterations 105
[INFO] SolveP: 6481.859 [ms]
time step continuity errors : sum local = 0.00402499732926966, global = 0.0006292327733019999, cumulative = 0.0009170387426518844
[INFO] postSolveP: 130.987 [ms]
smoothSolver:  Solving for nuTilda, Initial residual = 0.01834132804146521, Final residual = 0.001707988091427896, No Iterations 3
[INFO] TimeStep: 13778.98 [ms]
ExecutionTime = 550.5700000000001 s  ClockTime = 554 s

Time = 30

velocityDampingConstraint velocityDamping damped 0 (0%) of cells
[INFO] MatrixAssemblyU: 2484.587 [ms]
smoothSolver:  Solving for Ux, Initial residual = 0.01078935575993255, Final residual = 0.001049345094894988, No Iterations 12
smoothSolver:  Solving for Uy, Initial residual = 0.04964183521044611, Final residual = 0.00423044537712788, No Iterations 13
smoothSolver:  Solving for Uz, Initial residual = 0.04658367788241587, Final residual = 0.004410901720581652, No Iterations 12
[INFO] MomentumPredictor: 2217.875 [ms]
[INFO] MatrixAssemblyPI: 542.3 [ms]
[INFO] MatrixAssemblyPII: 251.406 [ms]
DICPCG:  Solving for p, Initial residual = 0.04506764088926398, Final residual = 0.0004470977973429266, No Iterations 99
[INFO] SolveP: 6116.557 [ms]
time step continuity errors : sum local = 0.004141740862913181, global = 0.0008097020892706284, cumulative = 0.001726740831922513
[INFO] postSolveP: 129.857 [ms]
smoothSolver:  Solving for nuTilda, Initial residual = 0.02676644905597491, Final residual = 0.001589851991020616, No Iterations 3
[INFO] TimeStep: 13413.199 [ms]
ExecutionTime = 565.89 s  ClockTime = 569 s

Time = 31

velocityDampingConstraint velocityDamping damped 0 (0%) of cells
[INFO] MatrixAssemblyU: 2478.85 [ms]
smoothSolver:  Solving for Ux, Initial residual = 0.01085387548378171, Final residual = 0.00105555516246352, No Iterations 12
smoothSolver:  Solving for Uy, Initial residual = 0.05196389068788156, Final residual = 0.00517565606347919, No Iterations 12
smoothSolver:  Solving for Uz, Initial residual = 0.0482725807356516, Final residual = 0.00456975337966182, No Iterations 12
[INFO] MomentumPredictor: 2183.069 [ms]
[INFO] MatrixAssemblyPI: 530.938 [ms]
[INFO] MatrixAssemblyPII: 260.27 [ms]
DICPCG:  Solving for p, Initial residual = 0.0463051084620728, Final residual = 0.0004546564918150796, No Iterations 100
[INFO] SolveP: 6176.493 [ms]
time step continuity errors : sum local = 0.004266255558791445, global = 0.0009370853075879328, cumulative = 0.002663826139510446
[INFO] postSolveP: 134.876 [ms]
smoothSolver:  Solving for nuTilda, Initial residual = 0.0170776302904738, Final residual = 0.001589546982433659, No Iterations 3
[INFO] TimeStep: 13412.443 [ms]
ExecutionTime = 581.27 s  ClockTime = 585 s

Time = 32

velocityDampingConstraint velocityDamping damped 0 (0%) of cells
[INFO] MatrixAssemblyU: 2492.334 [ms]
smoothSolver:  Solving for Ux, Initial residual = 0.01096987279607499, Final residual = 0.001062352637954109, No Iterations 12
smoothSolver:  Solving for Uy, Initial residual = 0.0543690506439923, Final residual = 0.005414053922980284, No Iterations 12
smoothSolver:  Solving for Uz, Initial residual = 0.04983838791406885, Final residual = 0.004773979072308651, No Iterations 12
[INFO] MomentumPredictor: 2187.463 [ms]
[INFO] MatrixAssemblyPI: 533.49 [ms]
[INFO] MatrixAssemblyPII: 253.25 [ms]
DICPCG:  Solving for p, Initial residual = 0.04781686169938772, Final residual = 0.0004658402686747889, No Iterations 101
[INFO] SolveP: 6223.827 [ms]
time step continuity errors : sum local = 0.004426422746506697, global = 0.0009769440663735412, cumulative = 0.003640770205883987
[INFO] postSolveP: 134.303 [ms]
smoothSolver:  Solving for nuTilda, Initial residual = 0.02486082248256629, Final residual = 0.001487781567924808, No Iterations 3
[INFO] TimeStep: 13514.036 [ms]
ExecutionTime = 596.7 s  ClockTime = 600 s

Time = 33

velocityDampingConstraint velocityDamping damped 0 (0%) of cells
[INFO] MatrixAssemblyU: 2482.195 [ms]
smoothSolver:  Solving for Ux, Initial residual = 0.01091869262631121, Final residual = 0.001068547082352249, No Iterations 12
smoothSolver:  Solving for Uy, Initial residual = 0.05666537400735801, Final residual = 0.005636160934258087, No Iterations 12
smoothSolver:  Solving for Uz, Initial residual = 0.05197804417536961, Final residual = 0.005043768518676443, No Iterations 12
[INFO] MomentumPredictor: 2186.288 [ms]
[INFO] MatrixAssemblyPI: 554.362 [ms]
[INFO] MatrixAssemblyPII: 253.585 [ms]
DICPCG:  Solving for p, Initial residual = 0.04964653651374302, Final residual = 0.0004960559321680562, No Iterations 97
[INFO] SolveP: 6022.804 [ms]
time step continuity errors : sum local = 0.004770242451835917, global = 0.0009670902715876385, cumulative = 0.004607860477471625
[INFO] postSolveP: 127.397 [ms]
smoothSolver:  Solving for nuTilda, Initial residual = 0.01598603057495725, Final residual = 0.001480303155638176, No Iterations 3
[INFO] TimeStep: 13267.987 [ms]
ExecutionTime = 611.9299999999999 s  ClockTime = 615 s

Time = 34

velocityDampingConstraint velocityDamping damped 0 (0%) of cells
[INFO] MatrixAssemblyU: 2481.845 [ms]
smoothSolver:  Solving for Ux, Initial residual = 0.01103340663555375, Final residual = 0.001078616657460965, No Iterations 12
smoothSolver:  Solving for Uy, Initial residual = 0.0591510304155344, Final residual = 0.005884884751224874, No Iterations 12
smoothSolver:  Solving for Uz, Initial residual = 0.05448479221698221, Final residual = 0.005336333069843525, No Iterations 12
[INFO] MomentumPredictor: 2179.98 [ms]
[INFO] MatrixAssemblyPI: 540.379 [ms]
[INFO] MatrixAssemblyPII: 246.56 [ms]
DICPCG:  Solving for p, Initial residual = 0.05178320129220992, Final residual = 0.000516291030993212, No Iterations 95
[INFO] SolveP: 5875.67 [ms]
time step continuity errors : sum local = 0.005020813010633781, global = 0.0008914583032709693, cumulative = 0.005499318780742594
[INFO] postSolveP: 131.477 [ms]
smoothSolver:  Solving for nuTilda, Initial residual = 0.02322103840028288, Final residual = 0.001393834023476073, No Iterations 3
[INFO] TimeStep: 13170.443 [ms]
ExecutionTime = 627.03 s  ClockTime = 631 s

Time = 35

velocityDampingConstraint velocityDamping damped 0 (0%) of cells
[INFO] MatrixAssemblyU: 2484.212 [ms]
smoothSolver:  Solving for Ux, Initial residual = 0.01109098663152025, Final residual = 0.001091740284229049, No Iterations 12
smoothSolver:  Solving for Uy, Initial residual = 0.06170220878821647, Final residual = 0.005254135723056898, No Iterations 13
smoothSolver:  Solving for Uz, Initial residual = 0.05700776840045996, Final residual = 0.005608055689730371, No Iterations 12
[INFO] MomentumPredictor: 2239.026 [ms]
[INFO] MatrixAssemblyPI: 527.248 [ms]
[INFO] MatrixAssemblyPII: 260.035 [ms]
DICPCG:  Solving for p, Initial residual = 0.05359949984965304, Final residual = 0.000521709460820965, No Iterations 94
[INFO] SolveP: 5812.671 [ms]
time step continuity errors : sum local = 0.00513030058251935, global = 0.0007641639930344091, cumulative = 0.006263482773777003
[INFO] postSolveP: 140.561 [ms]
smoothSolver:  Solving for nuTilda, Initial residual = 0.01501726239408689, Final residual = 0.001382836650168503, No Iterations 3
[INFO] TimeStep: 13107.457 [ms]
ExecutionTime = 642.09 s  ClockTime = 646 s

Time = 36

velocityDampingConstraint velocityDamping damped 0 (0%) of cells
[INFO] MatrixAssemblyU: 2494.556 [ms]
smoothSolver:  Solving for Ux, Initial residual = 0.01136432118532717, Final residual = 0.001113921382087365, No Iterations 12
smoothSolver:  Solving for Uy, Initial residual = 0.06370794781357966, Final residual = 0.005510647437356423, No Iterations 13
smoothSolver:  Solving for Uz, Initial residual = 0.05964767580993429, Final residual = 0.005871194315836321, No Iterations 12
[INFO] MomentumPredictor: 2240.282 [ms]
[INFO] MatrixAssemblyPI: 549.176 [ms]
[INFO] MatrixAssemblyPII: 251.461 [ms]
DICPCG:  Solving for p, Initial residual = 0.05496133188534915, Final residual = 0.0005439709302114932, No Iterations 93
[INFO] SolveP: 5750.576 [ms]
time step continuity errors : sum local = 0.005396733585532406, global = 0.0005856226463690868, cumulative = 0.00684910542014609
[INFO] postSolveP: 134.456 [ms]
smoothSolver:  Solving for nuTilda, Initial residual = 0.02180674335594296, Final residual = 0.001307943075485874, No Iterations 3
[INFO] TimeStep: 13112.954 [ms]
ExecutionTime = 657.14 s  ClockTime = 661 s

Time = 37

velocityDampingConstraint velocityDamping damped 0 (0%) of cells
[INFO] MatrixAssemblyU: 2477.768 [ms]
smoothSolver:  Solving for Ux, Initial residual = 0.01157807175628796, Final residual = 0.001139726661561988, No Iterations 12
smoothSolver:  Solving for Uy, Initial residual = 0.06552343746548463, Final residual = 0.005750261666737213, No Iterations 13
smoothSolver:  Solving for Uz, Initial residual = 0.0622359040622093, Final residual = 0.006090033268889174, No Iterations 12
[INFO] MomentumPredictor: 2220.865 [ms]
[INFO] MatrixAssemblyPI: 531.581 [ms]
[INFO] MatrixAssemblyPII: 252.798 [ms]
DICPCG:  Solving for p, Initial residual = 0.05675127806491011, Final residual = 0.0005563024382469697, No Iterations 90
[INFO] SolveP: 5588.91 [ms]
time step continuity errors : sum local = 0.005564258899644365, global = 0.0003875021400935004, cumulative = 0.007236607560239591
[INFO] postSolveP: 128.931 [ms]
smoothSolver:  Solving for nuTilda, Initial residual = 0.01420296442790435, Final residual = 0.001295751128036612, No Iterations 3
[INFO] TimeStep: 12840.427 [ms]
ExecutionTime = 671.9400000000001 s  ClockTime = 676 s

Time = 38

velocityDampingConstraint velocityDamping damped 0 (0%) of cells
[INFO] MatrixAssemblyU: 2490.457 [ms]
smoothSolver:  Solving for Ux, Initial residual = 0.01189426663344092, Final residual = 0.001162430741810585, No Iterations 12
smoothSolver:  Solving for Uy, Initial residual = 0.06706878267108425, Final residual = 0.005931985718219111, No Iterations 13
smoothSolver:  Solving for Uz, Initial residual = 0.0649565121593883, Final residual = 0.006284944862219957, No Iterations 12
[INFO] MomentumPredictor: 2223.745 [ms]
[INFO] MatrixAssemblyPI: 529.3150000000001 [ms]
[INFO] MatrixAssemblyPII: 252.116 [ms]
DICPCG:  Solving for p, Initial residual = 0.05744255513087674, Final residual = 0.0005607742671410675, No Iterations 89
[INFO] SolveP: 5496.794 [ms]
time step continuity errors : sum local = 0.00564111304394155, global = 0.000170917392433711, cumulative = 0.007407524952673302
[INFO] postSolveP: 130.681 [ms]
smoothSolver:  Solving for nuTilda, Initial residual = 0.02058052747789304, Final residual = 0.001232095146490963, No Iterations 3
[INFO] TimeStep: 12802.792 [ms]
ExecutionTime = 686.6900000000001 s  ClockTime = 691 s

Time = 39

velocityDampingConstraint velocityDamping damped 0 (0%) of cells
[INFO] MatrixAssemblyU: 2497.553 [ms]
smoothSolver:  Solving for Ux, Initial residual = 0.01198655059800575, Final residual = 0.001175058164291704, No Iterations 12
smoothSolver:  Solving for Uy, Initial residual = 0.06855574522491435, Final residual = 0.006101321212513251, No Iterations 13
smoothSolver:  Solving for Uz, Initial residual = 0.06743370968434309, Final residual = 0.00650116005555835, No Iterations 12
[INFO] MomentumPredictor: 2220.03 [ms]
[INFO] MatrixAssemblyPI: 553.502 [ms]
[INFO] MatrixAssemblyPII: 245.018 [ms]
DICPCG:  Solving for p, Initial residual = 0.05748410727388354, Final residual = 0.0005687500572077079, No Iterations 88
[INFO] SolveP: 5449.789 [ms]
time step continuity errors : sum local = 0.005745828518802416, global = -5.311199235620226e-05, cumulative = 0.0073544129603171
[INFO] postSolveP: 131.256 [ms]
smoothSolver:  Solving for nuTilda, Initial residual = 0.01354260995725185, Final residual = 0.00122162399011566, No Iterations 3
[INFO] TimeStep: 12780.555 [ms]
ExecutionTime = 701.38 s  ClockTime = 705 s

Time = 40

velocityDampingConstraint velocityDamping damped 0 (0%) of cells
[INFO] MatrixAssemblyU: 2470.754 [ms]
smoothSolver:  Solving for Ux, Initial residual = 0.01212644479636547, Final residual = 0.00118575638069385, No Iterations 12
smoothSolver:  Solving for Uy, Initial residual = 0.06975174668049557, Final residual = 0.006265031748894857, No Iterations 13
smoothSolver:  Solving for Uz, Initial residual = 0.06925809460691838, Final residual = 0.006734569119537201, No Iterations 12
[INFO] MomentumPredictor: 2220.724 [ms]
[INFO] MatrixAssemblyPI: 519.075 [ms]
[INFO] MatrixAssemblyPII: 257.415 [ms]
DICPCG:  Solving for p, Initial residual = 0.05765199759629124, Final residual = 0.0005763620241343916, No Iterations 86
[INFO] SolveP: 5319.914 [ms]
time step continuity errors : sum local = 0.005832190942863901, global = -0.0002719226193305867, cumulative = 0.007082490340986513
[INFO] postSolveP: 132.439 [ms]
smoothSolver:  Solving for nuTilda, Initial residual = 0.01947496477078475, Final residual = 0.001168348034576214, No Iterations 3
[INFO] TimeStep: 12561.897 [ms]
ExecutionTime = 715.9299999999999 s  ClockTime = 720 s

Time = 41

velocityDampingConstraint velocityDamping damped 0 (0%) of cells
[INFO] MatrixAssemblyU: 2481.056 [ms]
smoothSolver:  Solving for Ux, Initial residual = 0.01206387010721931, Final residual = 0.001194987134565529, No Iterations 12
smoothSolver:  Solving for Uy, Initial residual = 0.07043159252639863, Final residual = 0.006427684436724031, No Iterations 13
smoothSolver:  Solving for Uz, Initial residual = 0.07038221159247644, Final residual = 0.006931259930169091, No Iterations 12
[INFO] MomentumPredictor: 2223.379 [ms]
[INFO] MatrixAssemblyPI: 526.824 [ms]
[INFO] MatrixAssemblyPII: 258.561 [ms]
DICPCG:  Solving for p, Initial residual = 0.05725272284285213, Final residual = 0.0005652109661056598, No Iterations 85
[INFO] SolveP: 5270.271 [ms]
time step continuity errors : sum local = 0.005721875117712378, global = -0.0004658070632933333, cumulative = 0.006616683277693179
[INFO] postSolveP: 127.363 [ms]
smoothSolver:  Solving for nuTilda, Initial residual = 0.01295254185506203, Final residual = 0.001159751680821307, No Iterations 3
[INFO] TimeStep: 12528.455 [ms]
ExecutionTime = 730.36 s  ClockTime = 734 s

Time = 42

velocityDampingConstraint velocityDamping damped 0 (0%) of cells
[INFO] MatrixAssemblyU: 2497.747 [ms]
smoothSolver:  Solving for Ux, Initial residual = 0.01210014829197004, Final residual = 0.001201889430004143, No Iterations 12
smoothSolver:  Solving for Uy, Initial residual = 0.07097969045770669, Final residual = 0.006616825556341338, No Iterations 13
smoothSolver:  Solving for Uz, Initial residual = 0.07093702551431293, Final residual = 0.006038334894460665, No Iterations 13
[INFO] MomentumPredictor: 2267.071 [ms]
[INFO] MatrixAssemblyPI: 526.544 [ms]
[INFO] MatrixAssemblyPII: 254.446 [ms]
DICPCG:  Solving for p, Initial residual = 0.05690865826520929, Final residual = 0.0005618418368936995, No Iterations 84
[INFO] SolveP: 5215.179 [ms]
time step continuity errors : sum local = 0.005683339663736122, global = -0.0006594869740952557, cumulative = 0.005957196303597923
[INFO] postSolveP: 133.653 [ms]
smoothSolver:  Solving for nuTilda, Initial residual = 0.01846560970405805, Final residual = 0.001113244675252145, No Iterations 3
[INFO] TimeStep: 12575.421 [ms]
ExecutionTime = 744.9 s  ClockTime = 749 s

Time = 43

velocityDampingConstraint velocityDamping damped 0 (0%) of cells
[INFO] MatrixAssemblyU: 2507.022 [ms]
smoothSolver:  Solving for Ux, Initial residual = 0.01200447389067826, Final residual = 0.001029710416220491, No Iterations 13
smoothSolver:  Solving for Uy, Initial residual = 0.07169619947303457, Final residual = 0.006835843503678185, No Iterations 13
smoothSolver:  Solving for Uz, Initial residual = 0.07059048758498435, Final residual = 0.006119698231265489, No Iterations 13
[INFO] MomentumPredictor: 2317.412 [ms]
[INFO] MatrixAssemblyPI: 533.174 [ms]
[INFO] MatrixAssemblyPII: 255.257 [ms]
DICPCG:  Solving for p, Initial residual = 0.05625609959581276, Final residual = 0.0005621721022203268, No Iterations 87
[INFO] SolveP: 5394.615 [ms]
time step continuity errors : sum local = 0.005668531148515281, global = -0.0008571746692289334, cumulative = 0.00510002163436899
[INFO] postSolveP: 122.485 [ms]
smoothSolver:  Solving for nuTilda, Initial residual = 0.01236331105354123, Final residual = 0.001103531530957225, No Iterations 3
[INFO] TimeStep: 12824.184 [ms]
ExecutionTime = 759.6 s  ClockTime = 764 s

Time = 44

velocityDampingConstraint velocityDamping damped 0 (0%) of cells
[INFO] MatrixAssemblyU: 2509.535 [ms]
smoothSolver:  Solving for Ux, Initial residual = 0.01202151671040864, Final residual = 0.001038407375696191, No Iterations 13
smoothSolver:  Solving for Uy, Initial residual = 0.07220856946314697, Final residual = 0.007043389436911241, No Iterations 13
smoothSolver:  Solving for Uz, Initial residual = 0.06995414732097734, Final residual = 0.006189734916255837, No Iterations 13
[INFO] MomentumPredictor: 2321.803 [ms]
[INFO] MatrixAssemblyPI: 528.1420000000001 [ms]
[INFO] MatrixAssemblyPII: 253.505 [ms]
DICPCG:  Solving for p, Initial residual = 0.05552900591637382, Final residual = 0.0005545933397309634, No Iterations 101
[INFO] SolveP: 6224.81 [ms]
time step continuity errors : sum local = 0.005547761665014858, global = -0.00104416611309893, cumulative = 0.004055855521270061
[INFO] postSolveP: 130.71 [ms]
smoothSolver:  Solving for nuTilda, Initial residual = 0.0175231293530723, Final residual = 0.001060995243141474, No Iterations 3
[INFO] TimeStep: 13597.032 [ms]
ExecutionTime = 775.16 s  ClockTime = 779 s

Time = 45

velocityDampingConstraint velocityDamping damped 0 (0%) of cells
[INFO] MatrixAssemblyU: 2495.886 [ms]
smoothSolver:  Solving for Ux, Initial residual = 0.01188766124353529, Final residual = 0.001047561127876151, No Iterations 13
smoothSolver:  Solving for Uy, Initial residual = 0.07230842855268645, Final residual = 0.007176352826629767, No Iterations 13
smoothSolver:  Solving for Uz, Initial residual = 0.06917983492198812, Final residual = 0.006250767036463732, No Iterations 13
[INFO] MomentumPredictor: 2315.522 [ms]
[INFO] MatrixAssemblyPI: 528.197 [ms]
[INFO] MatrixAssemblyPII: 257.007 [ms]
DICPCG:  Solving for p, Initial residual = 0.05510317445376454, Final residual = 0.0005438491535081384, No Iterations 91
[INFO] SolveP: 5641.527 [ms]
time step continuity errors : sum local = 0.005368677037349451, global = -0.001196525792366017, cumulative = 0.002859329728904044
[INFO] postSolveP: 139.744 [ms]
smoothSolver:  Solving for nuTilda, Initial residual = 0.01180229557023199, Final residual = 0.001049877130406221, No Iterations 3
[INFO] TimeStep: 13070.761 [ms]
ExecutionTime = 790.1 s  ClockTime = 794 s

Time = 46

velocityDampingConstraint velocityDamping damped 0 (0%) of cells
[INFO] MatrixAssemblyU: 2496.99 [ms]
smoothSolver:  Solving for Ux, Initial residual = 0.0117601123129761, Final residual = 0.001050503488572881, No Iterations 13
smoothSolver:  Solving for Uy, Initial residual = 0.07211570273426286, Final residual = 0.006163052295292321, No Iterations 14
smoothSolver:  Solving for Uz, Initial residual = 0.06792559380707029, Final residual = 0.006297822940122058, No Iterations 13
[INFO] MomentumPredictor: 2373.168 [ms]
[INFO] MatrixAssemblyPI: 531.9829999999999 [ms]
[INFO] MatrixAssemblyPII: 252.738 [ms]
DICPCG:  Solving for p, Initial residual = 0.05451785851341239, Final residual = 0.0005442733698250605, No Iterations 216
[INFO] SolveP: 13217.41 [ms]
time step continuity errors : sum local = 0.00531879955635919, global = -0.0003063757455130708, cumulative = 0.002552953983390973
[INFO] postSolveP: 133.189 [ms]
smoothSolver:  Solving for nuTilda, Initial residual = 0.01664250760549627, Final residual = 0.001012572579554582, No Iterations 3
[INFO] TimeStep: 20684.09 [ms]
ExecutionTime = 812.71 s  ClockTime = 817 s

Time = 47

velocityDampingConstraint velocityDamping damped 0 (0%) of cells
[INFO] MatrixAssemblyU: 2483.182 [ms]
smoothSolver:  Solving for Ux, Initial residual = 0.01172483712714983, Final residual = 0.001057705458328026, No Iterations 13
smoothSolver:  Solving for Uy, Initial residual = 0.07210087975219578, Final residual = 0.006164509417702991, No Iterations 14
smoothSolver:  Solving for Uz, Initial residual = 0.06703631658052818, Final residual = 0.006354749837877973, No Iterations 13
[INFO] MomentumPredictor: 2376.446 [ms]
[INFO] MatrixAssemblyPI: 529.332 [ms]
[INFO] MatrixAssemblyPII: 256.439 [ms]
DICPCG:  Solving for p, Initial residual = 0.05586080965717516, Final residual = 0.0005543481841131426, No Iterations 85
[INFO] SolveP: 5290.346 [ms]
time step continuity errors : sum local = 0.005176867514948756, global = 0.0006134477472874032, cumulative = 0.003166401730678376
[INFO] postSolveP: 142.926 [ms]
smoothSolver:  Solving for nuTilda, Initial residual = 0.0112838350125117, Final residual = 0.001003005109586403, No Iterations 3
[INFO] TimeStep: 12705.907 [ms]
ExecutionTime = 827.3200000000001 s  ClockTime = 832 s

Time = 48

velocityDampingConstraint velocityDamping damped 0 (0%) of cells
[INFO] MatrixAssemblyU: 2521.02 [ms]
smoothSolver:  Solving for Ux, Initial residual = 0.01164126640803538, Final residual = 0.001062770858568123, No Iterations 13
smoothSolver:  Solving for Uy, Initial residual = 0.07128465303543471, Final residual = 0.006135553018321576, No Iterations 14
smoothSolver:  Solving for Uz, Initial residual = 0.06559195937677602, Final residual = 0.006334741079551507, No Iterations 13
[INFO] MomentumPredictor: 2362.154 [ms]
[INFO] MatrixAssemblyPI: 527.023 [ms]
[INFO] MatrixAssemblyPII: 251.643 [ms]
DICPCG:  Solving for p, Initial residual = 0.05478626344903244, Final residual = 0.0005461416283049687, No Iterations 131
[INFO] SolveP: 8064.167 [ms]
time step continuity errors : sum local = 0.005079947340126005, global = 0.001021186017525799, cumulative = 0.004187587748204175
[INFO] postSolveP: 136.073 [ms]
smoothSolver:  Solving for nuTilda, Initial residual = 0.01586160617298965, Final residual = 0.0009716691156518202, No Iterations 3
[INFO] TimeStep: 15560.267 [ms]
ExecutionTime = 844.8200000000001 s  ClockTime = 849 s

Time = 49

velocityDampingConstraint velocityDamping damped 0 (0%) of cells
[INFO] MatrixAssemblyU: 2471.007 [ms]
smoothSolver:  Solving for Ux, Initial residual = 0.01150198948557034, Final residual = 0.001068159680554901, No Iterations 13
smoothSolver:  Solving for Uy, Initial residual = 0.07080067015323649, Final residual = 0.006138655253470199, No Iterations 14
smoothSolver:  Solving for Uz, Initial residual = 0.06470260260124812, Final residual = 0.006336169182153415, No Iterations 13
[INFO] MomentumPredictor: 2366.384 [ms]
[INFO] MatrixAssemblyPI: 524.324 [ms]
[INFO] MatrixAssemblyPII: 260.97 [ms]
DICPCG:  Solving for p, Initial residual = 0.05365196130925781, Final residual = 0.0005351157814127871, No Iterations 94
[INFO] SolveP: 5825.815 [ms]
time step continuity errors : sum local = 0.005011223014468026, global = 0.001247766517340025, cumulative = 0.0054353542655442
[INFO] postSolveP: 125.502 [ms]
smoothSolver:  Solving for nuTilda, Initial residual = 0.01085167046106992, Final residual = 0.0009655926528155886, No Iterations 3
[INFO] TimeStep: 13238.764 [ms]
ExecutionTime = 860 s  ClockTime = 865 s

Time = 50

velocityDampingConstraint velocityDamping damped 0 (0%) of cells
[INFO] MatrixAssemblyU: 2497.282 [ms]
smoothSolver:  Solving for Ux, Initial residual = 0.01147226159855198, Final residual = 0.001068592946613707, No Iterations 13
smoothSolver:  Solving for Uy, Initial residual = 0.06956018602847847, Final residual = 0.006045966175785562, No Iterations 14
smoothSolver:  Solving for Uz, Initial residual = 0.06369594191630282, Final residual = 0.006290882067506455, No Iterations 13
[INFO] MomentumPredictor: 2361.129 [ms]
[INFO] MatrixAssemblyPI: 528.573 [ms]
[INFO] MatrixAssemblyPII: 250.911 [ms]
DICPCG:  Solving for p, Initial residual = 0.05322786042695192, Final residual = 0.0005256477522622436, No Iterations 219
[INFO] SolveP: 13402.96 [ms]
time step continuity errors : sum local = 0.004910693680301671, global = 1.424535066798272e-05, cumulative = 0.005449599616212183
[INFO] postSolveP: 133.709 [ms]
smoothSolver:  Solving for nuTilda, Initial residual = 0.01517933610113865, Final residual = 0.0009395695415786994, No Iterations 3
[INFO] TimeStep: 20874.964 [ms]
ExecutionTime = 882.79 s  ClockTime = 888 s

End

Finalising parallel run
