/*---------------------------------------------------------------------------*\
| =========                 |                                                 |
| \\      /  F ield         | OpenFOAM: The Open Source CFD Toolbox           |
|  \\    /   O peration     | Version:  v2106                                 |
|   \\  /    A nd           | Website:  www.openfoam.com                      |
|    \\/     M anipulation  |                                                 |
\*---------------------------------------------------------------------------*/
Build  : f815a12bba-20210902 OPENFOAM=2106
Arch   : "LSB;label=32;scalar=64"
Exec   : decomposePar -force
Date   : Jun 25 2023
Time   : 16:42:41
Host   : nla-gpu2.ianm.kit.edu
PID    : 3693487
--> FOAM Warning : 
    From Foam::fileName Foam::cwd_L()
    in file POSIX.C at line 494
    PWD is not the cwd() - reverting to physical description
I/O    : uncollated
--> FOAM Warning : 
    From Foam::fileName Foam::cwd_L()
    in file POSIX.C at line 494
    PWD is not the cwd() - reverting to physical description
Case   : /home/greole/data/code/exasim_project/micro_benchmarks/WindsorBody/workspace/37e6f46d84de5f23fd496cf4ad6848f8/case
nProcs : 1
trapFpe: Floating point exception trapping enabled (FOAM_SIGFPE).
fileModificationChecking : Monitoring run-time modified files using timeStampMaster (fileModificationSkew 5, maxFileModificationPolls 20)
allowSystemOperations : Allowing user-supplied system call operations

// * * * * * * * * * * * * * * * * * * * * * * * * * * * * * * * * * * * * * //
Create time



Decomposing mesh

Create mesh

Calculating distribution of cells
Decomposition method simple [16] (region region0)

Finished decomposition in 10.77 s

Calculating original mesh data

Distributing cells to processors

Distributing faces to processors

Distributing points to processors

Constructing processor meshes

Processor 0
    Number of cells = 949074
    Number of faces shared with processor 1 = 4473
    Number of faces shared with processor 4 = 710
    Number of faces shared with processor 8 = 16857
    Number of processor patches = 3
    Number of processor faces = 22040
    Number of boundary faces = 73405

Processor 1
    Number of cells = 636346
    Number of faces shared with processor 0 = 4473
    Number of faces shared with processor 2 = 5179
    Number of faces shared with processor 5 = 90
    Number of faces shared with processor 8 = 1
    Number of faces shared with processor 9 = 19249
    Number of faces shared with processor 10 = 2
    Number of processor patches = 6
    Number of processor faces = 28994
    Number of boundary faces = 28131

Processor 2
    Number of cells = 623146
    Number of faces shared with processor 1 = 5179
    Number of faces shared with processor 3 = 5151
    Number of faces shared with processor 6 = 80
    Number of faces shared with processor 9 = 2
    Number of faces shared with processor 10 = 19735
    Number of faces shared with processor 11 = 4
    Number of processor patches = 6
    Number of processor faces = 30151
    Number of boundary faces = 23974

Processor 3
    Number of cells = 916637
    Number of faces shared with processor 2 = 5151
    Number of faces shared with processor 7 = 560
    Number of faces shared with processor 11 = 22070
    Number of processor patches = 3
    Number of processor faces = 27781
    Number of boundary faces = 50679

Processor 4
    Number of cells = 951787
    Number of faces shared with processor 0 = 710
    Number of faces shared with processor 5 = 4330
    Number of faces shared with processor 12 = 16225
    Number of processor patches = 3
    Number of processor faces = 21265
    Number of boundary faces = 73636

Processor 5
    Number of cells = 654569
    Number of faces shared with processor 1 = 90
    Number of faces shared with processor 4 = 4330
    Number of faces shared with processor 6 = 5274
    Number of faces shared with processor 13 = 18833
    Number of faces shared with processor 14 = 1
    Number of processor patches = 5
    Number of processor faces = 28528
    Number of boundary faces = 28461

Processor 6
    Number of cells = 639878
    Number of faces shared with processor 2 = 80
    Number of faces shared with processor 5 = 5274
    Number of faces shared with processor 7 = 5215
    Number of faces shared with processor 14 = 19322
    Number of faces shared with processor 15 = 8
    Number of processor patches = 5
    Number of processor faces = 29899
    Number of boundary faces = 23932

Processor 7
    Number of cells = 935699
    Number of faces shared with processor 3 = 560
    Number of faces shared with processor 6 = 5215
    Number of faces shared with processor 14 = 12
    Number of faces shared with processor 15 = 21651
    Number of processor patches = 4
    Number of processor faces = 27438
    Number of boundary faces = 50764

Processor 8
    Number of cells = 629655
    Number of faces shared with processor 0 = 16857
    Number of faces shared with processor 1 = 1
    Number of faces shared with processor 9 = 5273
    Number of faces shared with processor 12 = 1136
    Number of processor patches = 4
    Number of processor faces = 23267
    Number of boundary faces = 38761

Processor 9
    Number of cells = 940836
    Number of faces shared with processor 1 = 19249
    Number of faces shared with processor 2 = 2
    Number of faces shared with processor 8 = 5273
    Number of faces shared with processor 10 = 8912
    Number of faces shared with processor 13 = 144
    Number of processor patches = 5
    Number of processor faces = 33580
    Number of boundary faces = 8150

Processor 10
    Number of cells = 952771
    Number of faces shared with processor 1 = 2
    Number of faces shared with processor 2 = 19735
    Number of faces shared with processor 9 = 8912
    Number of faces shared with processor 11 = 8968
    Number of faces shared with processor 14 = 128
    Number of processor patches = 5
    Number of processor faces = 37745
    Number of boundary faces = 336

Processor 11
    Number of cells = 658671
    Number of faces shared with processor 2 = 4
    Number of faces shared with processor 3 = 22070
    Number of faces shared with processor 10 = 8968
    Number of faces shared with processor 15 = 896
    Number of processor patches = 4
    Number of processor faces = 31938
    Number of boundary faces = 2768

Processor 12
    Number of cells = 623052
    Number of faces shared with processor 4 = 16225
    Number of faces shared with processor 8 = 1136
    Number of faces shared with processor 13 = 5016
    Number of processor patches = 3
    Number of processor faces = 22377
    Number of boundary faces = 38169

Processor 13
    Number of cells = 921817
    Number of faces shared with processor 5 = 18833
    Number of faces shared with processor 9 = 144
    Number of faces shared with processor 12 = 5016
    Number of faces shared with processor 14 = 8736
    Number of processor patches = 4
    Number of processor faces = 32729
    Number of boundary faces = 8138

Processor 14
    Number of cells = 937773
    Number of faces shared with processor 5 = 1
    Number of faces shared with processor 6 = 19322
    Number of faces shared with processor 7 = 12
    Number of faces shared with processor 10 = 128
    Number of faces shared with processor 13 = 8736
    Number of faces shared with processor 15 = 8783
    Number of processor patches = 6
    Number of processor faces = 36982
    Number of boundary faces = 336

Processor 15
    Number of cells = 642561
    Number of faces shared with processor 6 = 8
    Number of faces shared with processor 7 = 21651
    Number of faces shared with processor 11 = 896
    Number of faces shared with processor 14 = 8783
    Number of processor patches = 4
    Number of processor faces = 31338
    Number of boundary faces = 2768

Number of processor faces = 233026
Max number of cells = 952771 (20.84990715278694% above average 788392)
Max number of processor patches = 6 (37.14285714285715% above average 4.375)
Max number of faces between processors = 37745 (29.58210671770532% above average 29128.25)

Time = 0

Processor 0: field transfer
Processor 1: field transfer
Processor 2: field transfer
Processor 3: field transfer
Processor 4: field transfer
Processor 5: field transfer
Processor 6: field transfer
Processor 7: field transfer
Processor 8: field transfer
Processor 9: field transfer
Processor 10: field transfer
Processor 11: field transfer
Processor 12: field transfer
Processor 13: field transfer
Processor 14: field transfer
Processor 15: field transfer

End

