/*---------------------------------------------------------------------------*\
| =========                 |                                                 |
| \\      /  F ield         | OpenFOAM: The Open Source CFD Toolbox           |
|  \\    /   O peration     | Version:  2306                                  |
|   \\  /    A nd           | Website:  www.openfoam.com                      |
|    \\/     M anipulation  |                                                 |
\*---------------------------------------------------------------------------*/
Build  : c423ebec-20231012 OPENFOAM=2306 version=v2306
Arch   : "LSB;label=32;scalar=64"
Exec   : icoFoam -parallel -case /hkfs/work/workspace/scratch/eq4036-l3d/workspace/363323470301c0c2724e8781ab7b0920/case
Date   : Jan 10 2024
Time   : 21:59:46
Host   : hkn0432.localdomain
PID    : 2253981
I/O    : uncollated
Case   : /hkfs/work/workspace/scratch/eq4036-l3d/workspace/363323470301c0c2724e8781ab7b0920/case
nProcs : 8
Hosts  :
(
    (hkn0432.localdomain 8)
)
Pstream initialized with:
    floatTransfer      : false
    nProcsSimpleSum    : 0
    nonBlockingExchange: 0 (tuning: 0)
    exchange algorithm : -1
    commsType          : nonBlocking
    polling iterations : 0
trapFpe: Floating point exception trapping enabled (FOAM_SIGFPE).
fileModificationChecking : Monitoring run-time modified files using timeStampMaster (fileModificationSkew 5, maxFileModificationPolls 20)
allowSystemOperations : Allowing user-supplied system call operations

// * * * * * * * * * * * * * * * * * * * * * * * * * * * * * * * * * * * * * //
Create time

--> FOAM Warning : 
    From void* Foam::dlLibraryTable::openLibrary(const Foam::fileName&, bool)
    in file db/dynamicLibrary/dlLibraryTable/dlLibraryTable.C at line 188
    Could not load "libpetscFoam.so"
libpetscFoam.so: cannot open shared object file: No such file or directory
Create mesh for time = 0


PISO: Operating solver in PISO mode

Reading transportProperties

Reading field p

Reading field U

Reading/calculating face flux field phi


Starting time loop

Time = 0.0005

Courant Number mean: 8.62851e-18 max: 8.67362e-15
[INFO] MatrixAssemblyU: 27.025 [ms]
DILUPBiCGStab:  Solving for Ux, Initial residual = 1, Final residual = 0.0025649, No Iterations 5
DILUPBiCGStab:  Solving for Uy:  solution singularity
DILUPBiCGStab:  Solving for Uz:  solution singularity
[INFO] MomentumPredictor: 87.637 [ms]
[INFO] MatrixAssemblyPI: 22.86 [ms]
[INFO] AdjustPhi: 4.873 [ms]
[INFO] ConstrainPressure: 0.005 [ms]
[INFO] MatrixAssemblyPII: 6.446 [ms]
[OGL LOG][lduLduBase.H:119] Initialising OGL
	OGL commit:  e75313f+
	Branch: dev 
	Build type: Debug
	Ginkgo version: 1.8.0 ( develop)
	Ginkgo commit: sparse-communicator
	MPI is GPU aware: 1
	Forces host buffer based communication: 0
	CPU ranks per GPU: 1
	Matrix format: Ell
	End OGL_INFO
[OGL LOG][Proc: 0]: global_index_init: 0.074 [ms]
[OGL LOG][Proc: 0]p_local_cols: call_init: 1.171 [ms]
[OGL LOG][Proc: 0]p_local_rows: call_init: 0.399 [ms]
[OGL LOG][Proc: 0]p_local_ldu_map: call_init: 0.356 [ms]
[OGL LOG][Proc: 0]p_local_coeffs: call_init: 3.903 [ms]
[OGL LOG][Proc: 0]p_non_local_cols: call_init: 0.32 [ms]
[OGL LOG][Proc: 0]p_non_local_rows: call_init: 0.178 [ms]
[OGL LOG][Proc: 0]p_non_local_ldu_map: call_init: 0.152 [ms]
[OGL LOG][Proc: 0]p_non_local_coeffs: call_init: 0.151 [ms]
[OGL LOG][Proc: 0]p: init_local_sparsity_pattern: 2841.8 [ms]
[OGL LOG][Proc: 0]p: init_non_local_sparsity_pattern: 25.259 [ms]
[OGL LOG][Proc: 0]p: update_local_matrix_data: 9326.13 [ms]
[OGL LOG][Proc: 0]p: update_non_local_matrix_data: 0.348 [ms]
[OGL LOG][Proc: 0]device_partition: call_init: 0.13 [ms]
[OGL LOG][Proc: 0]p_matrix: call_init: 16.385 [ms]
[OGL LOG][Proc: 0]p_rhs: call_init: 0.622 [ms]
[OGL LOG][Proc: 0]p_solution: call_init: 0.469 [ms]
[OGL LOG][Preconditioner.H:121] Generate preconditioner BJ MaxBlockSize 1
[OGL LOG][Proc: 0]p: init_precond: 2184.34 [ms]
[OGL LOG][StoppingCriterion.H:239] Creating stopping criterion with minIter 0 frequency 1
[OGL LOG][Proc: 0]p: generate_solver: 0.146 [ms]
[OGL LOG][Proc: 0]p: solve: 3107.82 [ms]
[OGL LOG][Proc: 0]p: copy_x_back: 0.762 [ms]
[OGL LOG][lduLduBase.H:330] 
Statistics:
	Time per iteration: 3979 [mu s]
	Time per residual norm calculation: 10412.000000 [mu s]
	Time per iteration and DOF: 3.979000 [ns]
	Retrieve results bandwidth 1.312000 [GByte/s]
[OGL LOG][Proc: 0]p: solve_multi_gpu: 5313.43 [ms]
BJcudaGKOCG:  Solving for p, Initial residual = 1, Final residual = 9.83377e-05, No Iterations 781
[INFO] SolveP: 18952.2 [ms]
time step continuity errors : sum local = 2.11157e-08, global = -3.03639e-21, cumulative = -3.03639e-21
[INFO] ContinuityError: 3.357 [ms]
[INFO] CorrectBoundary: 0.129 [ms]
[INFO] PISOStep: 19002 [ms]
[INFO] MatrixAssemblyPI: 22.201 [ms]
[INFO] AdjustPhi: 1.586 [ms]
[INFO] ConstrainPressure: 0.002 [ms]
[INFO] MatrixAssemblyPII: 7.271 [ms]
[OGL LOG][Proc: 0]: global_index_init: 0.035 [ms]
[OGL LOG][Proc: 0]p_local_coeffs: call_update: 0.001 [ms]
[OGL LOG][Proc: 0]p_non_local_coeffs: call_update: 0 [ms]
[OGL LOG][Proc: 0]p: update_local_matrix_data: 5.553 [ms]
[OGL LOG][Proc: 0]p: update_non_local_matrix_data: 0.269 [ms]
[OGL LOG][Proc: 0]p: regenerate_distributed_matrix: 14.398 [ms]
[OGL LOG][Proc: 0]p_matrix: call_update: 15.37 [ms]
[OGL LOG][Proc: 0]p_rhs: call_update: 0.401 [ms]
[OGL LOG][Preconditioner.H:121] Generate preconditioner BJ MaxBlockSize 1
[OGL LOG][Proc: 0]p: init_precond: 0.503 [ms]
[OGL LOG][StoppingCriterion.H:239] Creating stopping criterion with minIter 0 frequency 1
[OGL LOG][Proc: 0]p: generate_solver: 0.013 [ms]
[OGL LOG][Proc: 0]p: solve: 2671.26 [ms]
[OGL LOG][Proc: 0]p: copy_x_back: 0.395 [ms]
[OGL LOG][lduLduBase.H:330] 
Statistics:
	Time per iteration: 3473 [mu s]
	Time per residual norm calculation: 1260.000000 [mu s]
	Time per iteration and DOF: 3.473000 [ns]
	Retrieve results bandwidth 2.531000 [GByte/s]
[OGL LOG][Proc: 0]p: solve_multi_gpu: 2689.5 [ms]
BJcudaGKOCG:  Solving for p, Initial residual = 0.731053, Final residual = 9.84031e-05, No Iterations 769
[INFO] SolveP: 2696.82 [ms]
time step continuity errors : sum local = 2.79018e-08, global = -1.51475e-21, cumulative = -4.55114e-21
[INFO] ContinuityError: 3.302 [ms]
[INFO] CorrectBoundary: 0.275 [ms]
[INFO] PISOStep: 2740.6 [ms]
[INFO] TimeStep: 21861.1 [ms]
ExecutionTime = 20.65 s  ClockTime = 22 s

Time = 0.001

Courant Number mean: 0.0215341 max: 0.377097
[INFO] MatrixAssemblyU: 19.175 [ms]
DILUPBiCGStab:  Solving for Ux, Initial residual = 0.150351, Final residual = 0.00113128, No Iterations 5
DILUPBiCGStab:  Solving for Uy, Initial residual = 0.368163, Final residual = 0.00224403, No Iterations 5
DILUPBiCGStab:  Solving for Uz, Initial residual = 0.988632, Final residual = 0.00606224, No Iterations 5
[INFO] MomentumPredictor: 159.066 [ms]
[INFO] MatrixAssemblyPI: 20.663 [ms]
[INFO] AdjustPhi: 0.921 [ms]
[INFO] ConstrainPressure: 0.002 [ms]
[INFO] MatrixAssemblyPII: 6.488 [ms]
[OGL LOG][Proc: 0]: global_index_init: 0.017 [ms]
[OGL LOG][Proc: 0]p_local_coeffs: call_update: 0 [ms]
[OGL LOG][Proc: 0]p_non_local_coeffs: call_update: 0 [ms]
[OGL LOG][Proc: 0]p: update_local_matrix_data: 5.216 [ms]
[OGL LOG][Proc: 0]p: update_non_local_matrix_data: 0.229 [ms]
[OGL LOG][Proc: 0]p: regenerate_distributed_matrix: 12.887 [ms]
[OGL LOG][Proc: 0]p_matrix: call_update: 13.575 [ms]
[OGL LOG][Proc: 0]p_rhs: call_update: 0.719 [ms]
[OGL LOG][Preconditioner.H:121] Generate preconditioner BJ MaxBlockSize 1
[OGL LOG][Proc: 0]p: init_precond: 0.347 [ms]
[OGL LOG][StoppingCriterion.H:239] Creating stopping criterion with minIter 461 frequency 12
[OGL LOG][Proc: 0]p: generate_solver: 0.017 [ms]
[OGL LOG][Proc: 0]p: solve: 1754.01 [ms]
[OGL LOG][Proc: 0]p: copy_x_back: 0.709 [ms]
[OGL LOG][lduLduBase.H:330] 
Statistics:
	Time per iteration: 2280 [mu s]
	Time per residual norm calculation: 1261.000000 [mu s]
	Time per iteration and DOF: 2.280000 [ns]
	Retrieve results bandwidth 1.410000 [GByte/s]
[OGL LOG][Proc: 0]p: solve_multi_gpu: 1771.17 [ms]
BJcudaGKOCG:  Solving for p, Initial residual = 0.690592, Final residual = 7.74455e-05, No Iterations 769
[INFO] SolveP: 1777.95 [ms]
time step continuity errors : sum local = 2.45716e-08, global = -5.70778e-21, cumulative = -1.02589e-20
[INFO] ContinuityError: 2.618 [ms]
[INFO] CorrectBoundary: 0.121 [ms]
[INFO] PISOStep: 1819.57 [ms]
[INFO] MatrixAssemblyPI: 20.939 [ms]
[INFO] AdjustPhi: 0.975 [ms]
[INFO] ConstrainPressure: 0.001 [ms]
[INFO] MatrixAssemblyPII: 6.927 [ms]
[OGL LOG][Proc: 0]: global_index_init: 0.018 [ms]
[OGL LOG][Proc: 0]p_local_coeffs: call_update: 0 [ms]
[OGL LOG][Proc: 0]p_non_local_coeffs: call_update: 0 [ms]
[OGL LOG][Proc: 0]p: update_local_matrix_data: 5.549 [ms]
[OGL LOG][Proc: 0]p: update_non_local_matrix_data: 0.234 [ms]
[OGL LOG][Proc: 0]p: regenerate_distributed_matrix: 14.066 [ms]
[OGL LOG][Proc: 0]p_matrix: call_update: 14.941 [ms]
[OGL LOG][Proc: 0]p_rhs: call_update: 0.441 [ms]
[OGL LOG][Preconditioner.H:121] Generate preconditioner BJ MaxBlockSize 1
[OGL LOG][Proc: 0]p: init_precond: 0.468 [ms]
[OGL LOG][StoppingCriterion.H:239] Creating stopping criterion with minIter 461 frequency 17
[OGL LOG][Proc: 0]p: generate_solver: 0.014 [ms]
[OGL LOG][Proc: 0]p: solve: 1739.45 [ms]
[OGL LOG][Proc: 0]p: copy_x_back: 0.377 [ms]
[OGL LOG][lduLduBase.H:330] 
Statistics:
	Time per iteration: 2270 [mu s]
	Time per residual norm calculation: 1108.000000 [mu s]
	Time per iteration and DOF: 2.270000 [ns]
	Retrieve results bandwidth 2.652000 [GByte/s]
[OGL LOG][Proc: 0]p: solve_multi_gpu: 1756.49 [ms]
BJcudaGKOCG:  Solving for p, Initial residual = 0.619767, Final residual = 7.90562e-05, No Iterations 766
[INFO] SolveP: 1764.84 [ms]
time step continuity errors : sum local = 2.55829e-08, global = -5.54451e-21, cumulative = -1.58034e-20
[INFO] ContinuityError: 4.56 [ms]
[INFO] CorrectBoundary: 0.507 [ms]
[INFO] PISOStep: 1808.05 [ms]
[INFO] TimeStep: 3808.72 [ms]
ExecutionTime = 24.45 s  ClockTime = 26 s

Time = 0.0015

Courant Number mean: 0.0324926 max: 0.441243
[INFO] MatrixAssemblyU: 17.599 [ms]
DILUPBiCGStab:  Solving for Ux, Initial residual = 0.053105, Final residual = 0.000326421, No Iterations 5
DILUPBiCGStab:  Solving for Uy, Initial residual = 0.12468, Final residual = 0.000558084, No Iterations 5
DILUPBiCGStab:  Solving for Uz, Initial residual = 0.57506, Final residual = 0.00311342, No Iterations 5
[INFO] MomentumPredictor: 162.325 [ms]
[INFO] MatrixAssemblyPI: 20.747 [ms]
[INFO] AdjustPhi: 1.058 [ms]
[INFO] ConstrainPressure: 0.002 [ms]
[INFO] MatrixAssemblyPII: 6.35 [ms]
[OGL LOG][Proc: 0]: global_index_init: 0.014 [ms]
[OGL LOG][Proc: 0]p_local_coeffs: call_update: 0 [ms]
[OGL LOG][Proc: 0]p_non_local_coeffs: call_update: 0 [ms]
[OGL LOG][Proc: 0]p: update_local_matrix_data: 5.141 [ms]
[OGL LOG][Proc: 0]p: update_non_local_matrix_data: 0.215 [ms]
[OGL LOG][Proc: 0]p: regenerate_distributed_matrix: 14.448 [ms]
[OGL LOG][Proc: 0]p_matrix: call_update: 15.354 [ms]
[OGL LOG][Proc: 0]p_rhs: call_update: 0.47 [ms]
[OGL LOG][Preconditioner.H:121] Generate preconditioner BJ MaxBlockSize 1
[OGL LOG][Proc: 0]p: init_precond: 0.324 [ms]
[OGL LOG][StoppingCriterion.H:239] Creating stopping criterion with minIter 459 frequency 12
[OGL LOG][Proc: 0]p: generate_solver: 0.014 [ms]
[OGL LOG][Proc: 0]p: solve: 1752.95 [ms]
[OGL LOG][Proc: 0]p: copy_x_back: 0.404 [ms]
[OGL LOG][lduLduBase.H:330] 
Statistics:
	Time per iteration: 2279 [mu s]
	Time per residual norm calculation: 1111.000000 [mu s]
	Time per iteration and DOF: 2.279000 [ns]
	Retrieve results bandwidth 2.475000 [GByte/s]
[OGL LOG][Proc: 0]p: solve_multi_gpu: 1771.38 [ms]
BJcudaGKOCG:  Solving for p, Initial residual = 0.632513, Final residual = 5.20472e-05, No Iterations 769
[INFO] SolveP: 1779.1 [ms]
time step continuity errors : sum local = 1.19223e-08, global = 2.55998e-21, cumulative = -1.32435e-20
[INFO] ContinuityError: 3.192 [ms]
[INFO] CorrectBoundary: 0.117 [ms]
[INFO] PISOStep: 1820.1 [ms]
[INFO] MatrixAssemblyPI: 21.076 [ms]
[INFO] AdjustPhi: 0.969 [ms]
[INFO] ConstrainPressure: 0.002 [ms]
[INFO] MatrixAssemblyPII: 6.269 [ms]
[OGL LOG][Proc: 0]: global_index_init: 0.021 [ms]
[OGL LOG][Proc: 0]p_local_coeffs: call_update: 0 [ms]
[OGL LOG][Proc: 0]p_non_local_coeffs: call_update: 0 [ms]
[OGL LOG][Proc: 0]p: update_local_matrix_data: 5.599 [ms]
[OGL LOG][Proc: 0]p: update_non_local_matrix_data: 0.218 [ms]
[OGL LOG][Proc: 0]p: regenerate_distributed_matrix: 12.791 [ms]
[OGL LOG][Proc: 0]p_matrix: call_update: 13.402 [ms]
[OGL LOG][Proc: 0]p_rhs: call_update: 0.562 [ms]
[OGL LOG][Preconditioner.H:121] Generate preconditioner BJ MaxBlockSize 1
[OGL LOG][Proc: 0]p: init_precond: 0.354 [ms]
[OGL LOG][StoppingCriterion.H:239] Creating stopping criterion with minIter 461 frequency 12
[OGL LOG][Proc: 0]p: generate_solver: 0.021 [ms]
[OGL LOG][Proc: 0]p: solve: 1757.15 [ms]
[OGL LOG][Proc: 0]p: copy_x_back: 0.368 [ms]
[OGL LOG][lduLduBase.H:330] 
Statistics:
	Time per iteration: 2284 [mu s]
	Time per residual norm calculation: 1109.000000 [mu s]
	Time per iteration and DOF: 2.284000 [ns]
	Retrieve results bandwidth 2.717000 [GByte/s]
[OGL LOG][Proc: 0]p: solve_multi_gpu: 1774.64 [ms]
BJcudaGKOCG:  Solving for p, Initial residual = 0.579929, Final residual = 4.69084e-05, No Iterations 769
[INFO] SolveP: 1782.55 [ms]
time step continuity errors : sum local = 1.04603e-08, global = -6.64129e-21, cumulative = -1.98847e-20
[INFO] ContinuityError: 3.006 [ms]
[INFO] CorrectBoundary: 0.094 [ms]
[INFO] PISOStep: 1823.56 [ms]
[INFO] TimeStep: 3826.72 [ms]
ExecutionTime = 28.25 s  ClockTime = 29 s

Time = 0.002

Courant Number mean: 0.0388942 max: 0.452945
[INFO] MatrixAssemblyU: 18.83 [ms]
DILUPBiCGStab:  Solving for Ux, Initial residual = 0.0318963, Final residual = 0.000167499, No Iterations 5
DILUPBiCGStab:  Solving for Uy, Initial residual = 0.0813666, Final residual = 0.00038495, No Iterations 5
DILUPBiCGStab:  Solving for Uz, Initial residual = 0.273727, Final residual = 0.00117652, No Iterations 5
[INFO] MomentumPredictor: 158.251 [ms]
[INFO] MatrixAssemblyPI: 20.58 [ms]
[INFO] AdjustPhi: 0.901 [ms]
[INFO] ConstrainPressure: 0.002 [ms]
[INFO] MatrixAssemblyPII: 6.457 [ms]
[OGL LOG][Proc: 0]: global_index_init: 0.015 [ms]
[OGL LOG][Proc: 0]p_local_coeffs: call_update: 0 [ms]
[OGL LOG][Proc: 0]p_non_local_coeffs: call_update: 0 [ms]
[OGL LOG][Proc: 0]p: update_local_matrix_data: 5.346 [ms]
[OGL LOG][Proc: 0]p: update_non_local_matrix_data: 0.235 [ms]
[OGL LOG][Proc: 0]p: regenerate_distributed_matrix: 12.459 [ms]
[OGL LOG][Proc: 0]p_matrix: call_update: 13.172 [ms]
[OGL LOG][Proc: 0]p_rhs: call_update: 0.588 [ms]
[OGL LOG][Preconditioner.H:121] Generate preconditioner BJ MaxBlockSize 1
[OGL LOG][Proc: 0]p: init_precond: 0.331 [ms]
[OGL LOG][StoppingCriterion.H:239] Creating stopping criterion with minIter 461 frequency 12
[OGL LOG][Proc: 0]p: generate_solver: 0.015 [ms]
[OGL LOG][Proc: 0]p: solve: 1725.99 [ms]
[OGL LOG][Proc: 0]p: copy_x_back: 0.756 [ms]
[OGL LOG][lduLduBase.H:330] 
Statistics:
	Time per iteration: 2280 [mu s]
	Time per residual norm calculation: 1254.000000 [mu s]
	Time per iteration and DOF: 2.280000 [ns]
	Retrieve results bandwidth 1.322000 [GByte/s]
[OGL LOG][Proc: 0]p: solve_multi_gpu: 1742.6 [ms]
BJcudaGKOCG:  Solving for p, Initial residual = 0.412474, Final residual = 7.84709e-05, No Iterations 757
[INFO] SolveP: 1749.67 [ms]
time step continuity errors : sum local = 1.53464e-08, global = 1.12626e-21, cumulative = -1.87585e-20
[INFO] ContinuityError: 2.552 [ms]
[INFO] CorrectBoundary: 0.243 [ms]
[INFO] PISOStep: 1791.7 [ms]
[INFO] MatrixAssemblyPI: 21.313 [ms]
[INFO] AdjustPhi: 1.38 [ms]
[INFO] ConstrainPressure: 0.002 [ms]
[INFO] MatrixAssemblyPII: 6.742 [ms]
[OGL LOG][Proc: 0]: global_index_init: 0.018 [ms]
[OGL LOG][Proc: 0]p_local_coeffs: call_update: 0 [ms]
[OGL LOG][Proc: 0]p_non_local_coeffs: call_update: 0 [ms]
[OGL LOG][Proc: 0]p: update_local_matrix_data: 5.403 [ms]
[OGL LOG][Proc: 0]p: update_non_local_matrix_data: 0.244 [ms]
[OGL LOG][Proc: 0]p: regenerate_distributed_matrix: 13.996 [ms]
[OGL LOG][Proc: 0]p_matrix: call_update: 14.824 [ms]
[OGL LOG][Proc: 0]p_rhs: call_update: 0.43 [ms]
[OGL LOG][Preconditioner.H:121] Generate preconditioner BJ MaxBlockSize 1
[OGL LOG][Proc: 0]p: init_precond: 0.479 [ms]
[OGL LOG][StoppingCriterion.H:239] Creating stopping criterion with minIter 454 frequency 17
[OGL LOG][Proc: 0]p: generate_solver: 0.013 [ms]
[OGL LOG][Proc: 0]p: solve: 1739.87 [ms]
[OGL LOG][Proc: 0]p: copy_x_back: 0.405 [ms]
[OGL LOG][lduLduBase.H:330] 
Statistics:
	Time per iteration: 2271 [mu s]
	Time per residual norm calculation: 1254.000000 [mu s]
	Time per iteration and DOF: 2.271000 [ns]
	Retrieve results bandwidth 2.469000 [GByte/s]
[OGL LOG][Proc: 0]p: solve_multi_gpu: 1756.79 [ms]
BJcudaGKOCG:  Solving for p, Initial residual = 0.350599, Final residual = 3.34052e-05, No Iterations 766
[INFO] SolveP: 1764.76 [ms]
time step continuity errors : sum local = 6.59798e-09, global = -3.28061e-21, cumulative = -2.20391e-20
[INFO] ContinuityError: 4.954 [ms]
[INFO] CorrectBoundary: 0.852 [ms]
[INFO] PISOStep: 1808.56 [ms]
[INFO] TimeStep: 3780.28 [ms]
ExecutionTime = 32.03 s  ClockTime = 33 s

Time = 0.0025

Courant Number mean: 0.043947 max: 0.459624
[INFO] MatrixAssemblyU: 17.659 [ms]
DILUPBiCGStab:  Solving for Ux, Initial residual = 0.0235043, Final residual = 0.000104805, No Iterations 5
DILUPBiCGStab:  Solving for Uy, Initial residual = 0.051522, Final residual = 0.000235038, No Iterations 5
DILUPBiCGStab:  Solving for Uz, Initial residual = 0.0982116, Final residual = 0.000481892, No Iterations 5
[INFO] MomentumPredictor: 161.867 [ms]
[INFO] MatrixAssemblyPI: 20.635 [ms]
[INFO] AdjustPhi: 0.917 [ms]
[INFO] ConstrainPressure: 0.001 [ms]
[INFO] MatrixAssemblyPII: 6.342 [ms]
[OGL LOG][Proc: 0]: global_index_init: 0.012 [ms]
[OGL LOG][Proc: 0]p_local_coeffs: call_update: 0 [ms]
[OGL LOG][Proc: 0]p_non_local_coeffs: call_update: 0 [ms]
[OGL LOG][Proc: 0]p: update_local_matrix_data: 5.078 [ms]
[OGL LOG][Proc: 0]p: update_non_local_matrix_data: 0.216 [ms]
[OGL LOG][Proc: 0]p: regenerate_distributed_matrix: 14.489 [ms]
[OGL LOG][Proc: 0]p_matrix: call_update: 15.404 [ms]
[OGL LOG][Proc: 0]p_rhs: call_update: 0.252 [ms]
[OGL LOG][Preconditioner.H:121] Generate preconditioner BJ MaxBlockSize 1
[OGL LOG][Proc: 0]p: init_precond: 0.479 [ms]
[OGL LOG][StoppingCriterion.H:239] Creating stopping criterion with minIter 459 frequency 17
[OGL LOG][Proc: 0]p: generate_solver: 0.015 [ms]
[OGL LOG][Proc: 0]p: solve: 1659.04 [ms]
[OGL LOG][Proc: 0]p: copy_x_back: 0.38 [ms]
[OGL LOG][lduLduBase.H:330] 
Statistics:
	Time per iteration: 2266 [mu s]
	Time per residual norm calculation: 1399.000000 [mu s]
	Time per iteration and DOF: 2.266000 [ns]
	Retrieve results bandwidth 2.631000 [GByte/s]
[OGL LOG][Proc: 0]p: solve_multi_gpu: 1677.76 [ms]
BJcudaGKOCG:  Solving for p, Initial residual = 0.314803, Final residual = 6.0693e-05, No Iterations 732
[INFO] SolveP: 1684.29 [ms]
time step continuity errors : sum local = 9.80149e-09, global = -3.41722e-21, cumulative = -2.54563e-20
[INFO] ContinuityError: 2.551 [ms]
[INFO] CorrectBoundary: 0.094 [ms]
[INFO] PISOStep: 1723.61 [ms]
[INFO] MatrixAssemblyPI: 20.619 [ms]
[INFO] AdjustPhi: 0.96 [ms]
[INFO] ConstrainPressure: 0.002 [ms]
[INFO] MatrixAssemblyPII: 7.024 [ms]
[OGL LOG][Proc: 0]: global_index_init: 0.017 [ms]
[OGL LOG][Proc: 0]p_local_coeffs: call_update: 0 [ms]
[OGL LOG][Proc: 0]p_non_local_coeffs: call_update: 0 [ms]
[OGL LOG][Proc: 0]p: update_local_matrix_data: 5.211 [ms]
[OGL LOG][Proc: 0]p: update_non_local_matrix_data: 0.242 [ms]
[OGL LOG][Proc: 0]p: regenerate_distributed_matrix: 11.827 [ms]
[OGL LOG][Proc: 0]p_matrix: call_update: 12.58 [ms]
[OGL LOG][Proc: 0]p_rhs: call_update: 0.224 [ms]
[OGL LOG][Preconditioner.H:121] Generate preconditioner BJ MaxBlockSize 1
[OGL LOG][Proc: 0]p: init_precond: 0.476 [ms]
[OGL LOG][StoppingCriterion.H:239] Creating stopping criterion with minIter 439 frequency 17
[OGL LOG][Proc: 0]p: generate_solver: 0.017 [ms]
[OGL LOG][Proc: 0]p: solve: 1660.54 [ms]
[OGL LOG][Proc: 0]p: copy_x_back: 0.406 [ms]
[OGL LOG][lduLduBase.H:330] 
Statistics:
	Time per iteration: 2268 [mu s]
	Time per residual norm calculation: 1258.000000 [mu s]
	Time per iteration and DOF: 2.268000 [ns]
	Retrieve results bandwidth 2.463000 [GByte/s]
[OGL LOG][Proc: 0]p: solve_multi_gpu: 1675.85 [ms]
BJcudaGKOCG:  Solving for p, Initial residual = 0.269296, Final residual = 5.52235e-05, No Iterations 732
[INFO] SolveP: 1682.8 [ms]
time step continuity errors : sum local = 8.85218e-09, global = 8.88982e-21, cumulative = -1.65665e-20
[INFO] ContinuityError: 2.79 [ms]
[INFO] CorrectBoundary: 0.232 [ms]
[INFO] PISOStep: 1722.78 [ms]
[INFO] TimeStep: 3628.98 [ms]
ExecutionTime = 35.65 s  ClockTime = 37 s

Time = 0.003

Courant Number mean: 0.047987 max: 0.463866
[INFO] MatrixAssemblyU: 19.405 [ms]
DILUPBiCGStab:  Solving for Ux, Initial residual = 0.0178884, Final residual = 7.93758e-05, No Iterations 5
DILUPBiCGStab:  Solving for Uy, Initial residual = 0.0401302, Final residual = 0.000115979, No Iterations 5
DILUPBiCGStab:  Solving for Uz, Initial residual = 0.0852018, Final residual = 0.000399438, No Iterations 5
[INFO] MomentumPredictor: 161.457 [ms]
[INFO] MatrixAssemblyPI: 20.491 [ms]
[INFO] AdjustPhi: 1.985 [ms]
[INFO] ConstrainPressure: 0.002 [ms]
[INFO] MatrixAssemblyPII: 6.449 [ms]
[OGL LOG][Proc: 0]: global_index_init: 0.042 [ms]
[OGL LOG][Proc: 0]p_local_coeffs: call_update: 0 [ms]
[OGL LOG][Proc: 0]p_non_local_coeffs: call_update: 0 [ms]
[OGL LOG][Proc: 0]p: update_local_matrix_data: 5.374 [ms]
[OGL LOG][Proc: 0]p: update_non_local_matrix_data: 0.237 [ms]
[OGL LOG][Proc: 0]p: regenerate_distributed_matrix: 12.541 [ms]
[OGL LOG][Proc: 0]p_matrix: call_update: 13.271 [ms]
[OGL LOG][Proc: 0]p_rhs: call_update: 0.514 [ms]
[OGL LOG][Preconditioner.H:121] Generate preconditioner BJ MaxBlockSize 1
[OGL LOG][Proc: 0]p: init_precond: 0.497 [ms]
[OGL LOG][StoppingCriterion.H:239] Creating stopping criterion with minIter 439 frequency 17
[OGL LOG][Proc: 0]p: generate_solver: 0.013 [ms]
[OGL LOG][Proc: 0]p: solve: 1661.01 [ms]
[OGL LOG][Proc: 0]p: copy_x_back: 0.361 [ms]
[OGL LOG][lduLduBase.H:330] 
Statistics:
	Time per iteration: 2269 [mu s]
	Time per residual norm calculation: 1108.000000 [mu s]
	Time per iteration and DOF: 2.269000 [ns]
	Retrieve results bandwidth 2.770000 [GByte/s]
[OGL LOG][Proc: 0]p: solve_multi_gpu: 1676.88 [ms]
BJcudaGKOCG:  Solving for p, Initial residual = 0.196797, Final residual = 5.69496e-05, No Iterations 732
[INFO] SolveP: 1684.17 [ms]
time step continuity errors : sum local = 8.88037e-09, global = 2.34286e-21, cumulative = -1.42236e-20
[INFO] ContinuityError: 2.464 [ms]
[INFO] CorrectBoundary: 0.353 [ms]
[INFO] PISOStep: 1724.01 [ms]
[INFO] MatrixAssemblyPI: 19.803 [ms]
[INFO] AdjustPhi: 1.22 [ms]
[INFO] ConstrainPressure: 0.002 [ms]
[INFO] MatrixAssemblyPII: 6.381 [ms]
[OGL LOG][Proc: 0]: global_index_init: 0.012 [ms]
[OGL LOG][Proc: 0]p_local_coeffs: call_update: 0 [ms]
[OGL LOG][Proc: 0]p_non_local_coeffs: call_update: 0 [ms]
[OGL LOG][Proc: 0]p: update_local_matrix_data: 5.377 [ms]
[OGL LOG][Proc: 0]p: update_non_local_matrix_data: 0.214 [ms]
[OGL LOG][Proc: 0]p: regenerate_distributed_matrix: 11.793 [ms]
[OGL LOG][Proc: 0]p_matrix: call_update: 12.55 [ms]
[OGL LOG][Proc: 0]p_rhs: call_update: 0.574 [ms]
[OGL LOG][Preconditioner.H:121] Generate preconditioner BJ MaxBlockSize 1
[OGL LOG][Proc: 0]p: init_precond: 0.338 [ms]
[OGL LOG][StoppingCriterion.H:239] Creating stopping criterion with minIter 439 frequency 12
[OGL LOG][Proc: 0]p: generate_solver: 0.014 [ms]
[OGL LOG][Proc: 0]p: solve: 1644.03 [ms]
[OGL LOG][Proc: 0]p: copy_x_back: 0.37 [ms]
[OGL LOG][lduLduBase.H:330] 
Statistics:
	Time per iteration: 2280 [mu s]
	Time per residual norm calculation: 1408.000000 [mu s]
	Time per iteration and DOF: 2.280000 [ns]
	Retrieve results bandwidth 2.702000 [GByte/s]
[OGL LOG][Proc: 0]p: solve_multi_gpu: 1659.41 [ms]
BJcudaGKOCG:  Solving for p, Initial residual = 0.163575, Final residual = 7.00103e-05, No Iterations 721
[INFO] SolveP: 1666.55 [ms]
time step continuity errors : sum local = 1.0927e-08, global = -3.84072e-21, cumulative = -1.80644e-20
[INFO] ContinuityError: 4.296 [ms]
[INFO] CorrectBoundary: 0.42 [ms]
[INFO] PISOStep: 1707.32 [ms]
[INFO] TimeStep: 3615.11 [ms]
ExecutionTime = 39.26 s  ClockTime = 40 s

Time = 0.0035

Courant Number mean: 0.0513959 max: 0.466746
[INFO] MatrixAssemblyU: 18.271 [ms]
DILUPBiCGStab:  Solving for Ux, Initial residual = 0.0146336, Final residual = 5.75407e-05, No Iterations 5
DILUPBiCGStab:  Solving for Uy, Initial residual = 0.0317656, Final residual = 9.93731e-05, No Iterations 5
DILUPBiCGStab:  Solving for Uz, Initial residual = 0.0566515, Final residual = 0.000246145, No Iterations 5
[INFO] MomentumPredictor: 162.014 [ms]
[INFO] MatrixAssemblyPI: 20.791 [ms]
[INFO] AdjustPhi: 1.086 [ms]
[INFO] ConstrainPressure: 0.002 [ms]
[INFO] MatrixAssemblyPII: 6.391 [ms]
[OGL LOG][Proc: 0]: global_index_init: 0.019 [ms]
[OGL LOG][Proc: 0]p_local_coeffs: call_update: 0 [ms]
[OGL LOG][Proc: 0]p_non_local_coeffs: call_update: 0 [ms]
[OGL LOG][Proc: 0]p: update_local_matrix_data: 5.319 [ms]
[OGL LOG][Proc: 0]p: update_non_local_matrix_data: 0.226 [ms]
[OGL LOG][Proc: 0]p: regenerate_distributed_matrix: 13.133 [ms]
[OGL LOG][Proc: 0]p_matrix: call_update: 13.875 [ms]
[OGL LOG][Proc: 0]p_rhs: call_update: 0.417 [ms]
[OGL LOG][Preconditioner.H:121] Generate preconditioner BJ MaxBlockSize 1
[OGL LOG][Proc: 0]p: init_precond: 0.46 [ms]
[OGL LOG][StoppingCriterion.H:239] Creating stopping criterion with minIter 432 frequency 16
[OGL LOG][Proc: 0]p: generate_solver: 0.013 [ms]
[OGL LOG][Proc: 0]p: solve: 1601.7 [ms]
[OGL LOG][Proc: 0]p: copy_x_back: 0.401 [ms]
[OGL LOG][lduLduBase.H:330] 
Statistics:
	Time per iteration: 2271 [mu s]
	Time per residual norm calculation: 1254.000000 [mu s]
	Time per iteration and DOF: 2.271000 [ns]
	Retrieve results bandwidth 2.493000 [GByte/s]
[OGL LOG][Proc: 0]p: solve_multi_gpu: 1618.38 [ms]
BJcudaGKOCG:  Solving for p, Initial residual = 0.139299, Final residual = 7.07497e-05, No Iterations 705
[INFO] SolveP: 1625.35 [ms]
time step continuity errors : sum local = 1.04723e-08, global = 4.21581e-21, cumulative = -1.38485e-20
[INFO] ContinuityError: 4.721 [ms]
[INFO] CorrectBoundary: 0.715 [ms]
[INFO] PISOStep: 1666.89 [ms]
[INFO] MatrixAssemblyPI: 20.44 [ms]
[INFO] AdjustPhi: 2.776 [ms]
[INFO] ConstrainPressure: 0.002 [ms]
[INFO] MatrixAssemblyPII: 6.258 [ms]
[OGL LOG][Proc: 0]: global_index_init: 0.023 [ms]
[OGL LOG][Proc: 0]p_local_coeffs: call_update: 0 [ms]
[OGL LOG][Proc: 0]p_non_local_coeffs: call_update: 0 [ms]
[OGL LOG][Proc: 0]p: update_local_matrix_data: 5.233 [ms]
[OGL LOG][Proc: 0]p: update_non_local_matrix_data: 0.206 [ms]
[OGL LOG][Proc: 0]p: regenerate_distributed_matrix: 14.078 [ms]
[OGL LOG][Proc: 0]p_matrix: call_update: 14.825 [ms]
[OGL LOG][Proc: 0]p_rhs: call_update: 0.405 [ms]
[OGL LOG][Preconditioner.H:121] Generate preconditioner BJ MaxBlockSize 1
[OGL LOG][Proc: 0]p: init_precond: 0.483 [ms]
[OGL LOG][StoppingCriterion.H:239] Creating stopping criterion with minIter 423 frequency 16
[OGL LOG][Proc: 0]p: generate_solver: 0.013 [ms]
[OGL LOG][Proc: 0]p: solve: 1601.56 [ms]
[OGL LOG][Proc: 0]p: copy_x_back: 0.625 [ms]
[OGL LOG][lduLduBase.H:330] 
Statistics:
	Time per iteration: 2271 [mu s]
	Time per residual norm calculation: 1265.000000 [mu s]
	Time per iteration and DOF: 2.271000 [ns]
	Retrieve results bandwidth 1.600000 [GByte/s]
[OGL LOG][Proc: 0]p: solve_multi_gpu: 1619.44 [ms]
BJcudaGKOCG:  Solving for p, Initial residual = 0.116402, Final residual = 6.16095e-05, No Iterations 705
[INFO] SolveP: 1626.62 [ms]
time step continuity errors : sum local = 9.11541e-09, global = 1.75554e-21, cumulative = -1.2093e-20
[INFO] ContinuityError: 3.172 [ms]
[INFO] CorrectBoundary: 0.124 [ms]
[INFO] PISOStep: 1670.98 [ms]
[INFO] TimeStep: 3520.99 [ms]
ExecutionTime = 42.77 s  ClockTime = 44 s

Time = 0.004

Courant Number mean: 0.0543347 max: 0.468955
[INFO] MatrixAssemblyU: 20.159 [ms]
DILUPBiCGStab:  Solving for Ux, Initial residual = 0.0122797, Final residual = 4.5126e-05, No Iterations 5
DILUPBiCGStab:  Solving for Uy, Initial residual = 0.0265141, Final residual = 6.38192e-05, No Iterations 5
DILUPBiCGStab:  Solving for Uz, Initial residual = 0.050607, Final residual = 0.000168962, No Iterations 5
[INFO] MomentumPredictor: 160.298 [ms]
[INFO] MatrixAssemblyPI: 20.695 [ms]
[INFO] AdjustPhi: 0.928 [ms]
[INFO] ConstrainPressure: 0.003 [ms]
[INFO] MatrixAssemblyPII: 6.268 [ms]
[OGL LOG][Proc: 0]: global_index_init: 0.016 [ms]
[OGL LOG][Proc: 0]p_local_coeffs: call_update: 0 [ms]
[OGL LOG][Proc: 0]p_non_local_coeffs: call_update: 0 [ms]
[OGL LOG][Proc: 0]p: update_local_matrix_data: 5.579 [ms]
[OGL LOG][Proc: 0]p: update_non_local_matrix_data: 0.293 [ms]
[OGL LOG][Proc: 0]p: regenerate_distributed_matrix: 14.113 [ms]
[OGL LOG][Proc: 0]p_matrix: call_update: 14.823 [ms]
[OGL LOG][Proc: 0]p_rhs: call_update: 0.38 [ms]
[OGL LOG][Preconditioner.H:121] Generate preconditioner BJ MaxBlockSize 1
[OGL LOG][Proc: 0]p: init_precond: 0.482 [ms]
[OGL LOG][StoppingCriterion.H:239] Creating stopping criterion with minIter 423 frequency 16
[OGL LOG][Proc: 0]p: generate_solver: 0.015 [ms]
[OGL LOG][Proc: 0]p: solve: 974.788 [ms]
[OGL LOG][Proc: 0]p: copy_x_back: 0.369 [ms]
[OGL LOG][lduLduBase.H:330] 
Statistics:
	Time per iteration: 2251 [mu s]
	Time per residual norm calculation: 1259.000000 [mu s]
	Time per iteration and DOF: 2.251000 [ns]
	Retrieve results bandwidth 2.710000 [GByte/s]
[OGL LOG][Proc: 0]p: solve_multi_gpu: 992.392 [ms]
BJcudaGKOCG:  Solving for p, Initial residual = 0.0906984, Final residual = 9.89264e-05, No Iterations 433
[INFO] SolveP: 999.548 [ms]
time step continuity errors : sum local = 1.55008e-08, global = -5.79171e-21, cumulative = -1.78847e-20
[INFO] ContinuityError: 2.81 [ms]
[INFO] CorrectBoundary: 0.254 [ms]
[INFO] PISOStep: 1039.32 [ms]
[INFO] MatrixAssemblyPI: 19.829 [ms]
[INFO] AdjustPhi: 0.946 [ms]
[INFO] ConstrainPressure: 0.002 [ms]
[INFO] MatrixAssemblyPII: 6.335 [ms]
[OGL LOG][Proc: 0]: global_index_init: 0.027 [ms]
[OGL LOG][Proc: 0]p_local_coeffs: call_update: 0 [ms]
[OGL LOG][Proc: 0]p_non_local_coeffs: call_update: 0 [ms]
[OGL LOG][Proc: 0]p: update_local_matrix_data: 5.352 [ms]
[OGL LOG][Proc: 0]p: update_non_local_matrix_data: 0.238 [ms]
[OGL LOG][Proc: 0]p: regenerate_distributed_matrix: 12.05 [ms]
[OGL LOG][Proc: 0]p_matrix: call_update: 12.819 [ms]
[OGL LOG][Proc: 0]p_rhs: call_update: 0.488 [ms]
[OGL LOG][Preconditioner.H:121] Generate preconditioner BJ MaxBlockSize 1
[OGL LOG][Proc: 0]p: init_precond: 0.325 [ms]
[OGL LOG][StoppingCriterion.H:239] Creating stopping criterion with minIter 259 frequency 13
[OGL LOG][Proc: 0]p: generate_solver: 0.015 [ms]
[OGL LOG][Proc: 0]p: solve: 743.961 [ms]
[OGL LOG][Proc: 0]p: copy_x_back: 0.387 [ms]
[OGL LOG][lduLduBase.H:330] 
Statistics:
	Time per iteration: 2282 [mu s]
	Time per residual norm calculation: 1108.000000 [mu s]
	Time per iteration and DOF: 2.282000 [ns]
	Retrieve results bandwidth 2.583000 [GByte/s]
[OGL LOG][Proc: 0]p: solve_multi_gpu: 759.272 [ms]
BJcudaGKOCG:  Solving for p, Initial residual = 0.0750005, Final residual = 7.67791e-05, No Iterations 326
[INFO] SolveP: 766.432 [ms]
time step continuity errors : sum local = 1.14839e-08, global = -3.59917e-21, cumulative = -2.14839e-20
[INFO] ContinuityError: 2.974 [ms]
[INFO] CorrectBoundary: 0.173 [ms]
[INFO] PISOStep: 804.961 [ms]
[INFO] TimeStep: 2027.81 [ms]
ExecutionTime = 44.8 s  ClockTime = 46 s

Time = 0.0045

Courant Number mean: 0.0569118 max: 0.470657
[INFO] MatrixAssemblyU: 18.871 [ms]
DILUPBiCGStab:  Solving for Ux, Initial residual = 0.0105247, Final residual = 3.57161e-05, No Iterations 5
DILUPBiCGStab:  Solving for Uy, Initial residual = 0.0226896, Final residual = 5.87363e-05, No Iterations 5
DILUPBiCGStab:  Solving for Uz, Initial residual = 0.0426504, Final residual = 0.000126617, No Iterations 5
[INFO] MomentumPredictor: 158.339 [ms]
[INFO] MatrixAssemblyPI: 20.586 [ms]
[INFO] AdjustPhi: 0.927 [ms]
[INFO] ConstrainPressure: 0.002 [ms]
[INFO] MatrixAssemblyPII: 6.341 [ms]
[OGL LOG][Proc: 0]: global_index_init: 0.019 [ms]
[OGL LOG][Proc: 0]p_local_coeffs: call_update: 0 [ms]
[OGL LOG][Proc: 0]p_non_local_coeffs: call_update: 0 [ms]
[OGL LOG][Proc: 0]p: update_local_matrix_data: 5.335 [ms]
[OGL LOG][Proc: 0]p: update_non_local_matrix_data: 0.224 [ms]
[OGL LOG][Proc: 0]p: regenerate_distributed_matrix: 11.486 [ms]
[OGL LOG][Proc: 0]p_matrix: call_update: 12.131 [ms]
[OGL LOG][Proc: 0]p_rhs: call_update: 0.735 [ms]
[OGL LOG][Preconditioner.H:121] Generate preconditioner BJ MaxBlockSize 1
[OGL LOG][Proc: 0]p: init_precond: 0.33 [ms]
[OGL LOG][StoppingCriterion.H:239] Creating stopping criterion with minIter 195 frequency 8
[OGL LOG][Proc: 0]p: generate_solver: 0.014 [ms]
[OGL LOG][Proc: 0]p: solve: 745.086 [ms]
[OGL LOG][Proc: 0]p: copy_x_back: 0.373 [ms]
[OGL LOG][lduLduBase.H:330] 
Statistics:
	Time per iteration: 2321 [mu s]
	Time per residual norm calculation: 1100.000000 [mu s]
	Time per iteration and DOF: 2.321000 [ns]
	Retrieve results bandwidth 2.680000 [GByte/s]
[OGL LOG][Proc: 0]p: solve_multi_gpu: 759.564 [ms]
BJcudaGKOCG:  Solving for p, Initial residual = 0.0667202, Final residual = 8.26765e-05, No Iterations 321
[INFO] SolveP: 767.012 [ms]
time step continuity errors : sum local = 1.19581e-08, global = 1.19207e-21, cumulative = -2.02918e-20
[INFO] ContinuityError: 3.058 [ms]
[INFO] CorrectBoundary: 0.093 [ms]
[INFO] PISOStep: 806.103 [ms]
[INFO] MatrixAssemblyPI: 20.318 [ms]
[INFO] AdjustPhi: 1.279 [ms]
[INFO] ConstrainPressure: 0.001 [ms]
[INFO] MatrixAssemblyPII: 6.329 [ms]
[OGL LOG][Proc: 0]: global_index_init: 0.044 [ms]
[OGL LOG][Proc: 0]p_local_coeffs: call_update: 0 [ms]
[OGL LOG][Proc: 0]p_non_local_coeffs: call_update: 0 [ms]
[OGL LOG][Proc: 0]p: update_local_matrix_data: 5.291 [ms]
[OGL LOG][Proc: 0]p: update_non_local_matrix_data: 0.236 [ms]
[OGL LOG][Proc: 0]p: regenerate_distributed_matrix: 12.733 [ms]
[OGL LOG][Proc: 0]p_matrix: call_update: 13.425 [ms]
[OGL LOG][Proc: 0]p_rhs: call_update: 0.668 [ms]
[OGL LOG][Preconditioner.H:121] Generate preconditioner BJ MaxBlockSize 1
[OGL LOG][Proc: 0]p: init_precond: 0.332 [ms]
[OGL LOG][StoppingCriterion.H:239] Creating stopping criterion with minIter 192 frequency 8
[OGL LOG][Proc: 0]p: generate_solver: 0.014 [ms]
[OGL LOG][Proc: 0]p: solve: 746.109 [ms]
[OGL LOG][Proc: 0]p: copy_x_back: 0.359 [ms]
[OGL LOG][lduLduBase.H:330] 
Statistics:
	Time per iteration: 2324 [mu s]
	Time per residual norm calculation: 1258.000000 [mu s]
	Time per iteration and DOF: 2.324000 [ns]
	Retrieve results bandwidth 2.785000 [GByte/s]
[OGL LOG][Proc: 0]p: solve_multi_gpu: 762.427 [ms]
BJcudaGKOCG:  Solving for p, Initial residual = 0.0556232, Final residual = 7.51716e-05, No Iterations 321
[INFO] SolveP: 769.337 [ms]
time step continuity errors : sum local = 1.07425e-08, global = 9.27471e-21, cumulative = -1.10171e-20
[INFO] ContinuityError: 2.714 [ms]
[INFO] CorrectBoundary: 0.446 [ms]
[INFO] PISOStep: 808.467 [ms]
[INFO] TimeStep: 1794.5 [ms]
ExecutionTime = 46.59 s  ClockTime = 48 s

Time = 0.005

Courant Number mean: 0.0592067 max: 0.472052
[INFO] MatrixAssemblyU: 18.483 [ms]
DILUPBiCGStab:  Solving for Ux, Initial residual = 0.00921507, Final residual = 3.00604e-05, No Iterations 5
DILUPBiCGStab:  Solving for Uy, Initial residual = 0.0197307, Final residual = 4.40284e-05, No Iterations 5
DILUPBiCGStab:  Solving for Uz, Initial residual = 0.0381414, Final residual = 9.81888e-05, No Iterations 5
[INFO] MomentumPredictor: 159.252 [ms]
[INFO] MatrixAssemblyPI: 20.398 [ms]
[INFO] AdjustPhi: 1.183 [ms]
[INFO] ConstrainPressure: 0.002 [ms]
[INFO] MatrixAssemblyPII: 7.105 [ms]
[OGL LOG][Proc: 0]: global_index_init: 0.014 [ms]
[OGL LOG][Proc: 0]p_local_coeffs: call_update: 0 [ms]
[OGL LOG][Proc: 0]p_non_local_coeffs: call_update: 0 [ms]
[OGL LOG][Proc: 0]p: update_local_matrix_data: 5.289 [ms]
[OGL LOG][Proc: 0]p: update_non_local_matrix_data: 0.223 [ms]
[OGL LOG][Proc: 0]p: regenerate_distributed_matrix: 11.32 [ms]
[OGL LOG][Proc: 0]p_matrix: call_update: 12.046 [ms]
[OGL LOG][Proc: 0]p_rhs: call_update: 0.398 [ms]
[OGL LOG][Preconditioner.H:121] Generate preconditioner BJ MaxBlockSize 1
[OGL LOG][Proc: 0]p: init_precond: 0.484 [ms]
[OGL LOG][StoppingCriterion.H:239] Creating stopping criterion with minIter 192 frequency 11
[OGL LOG][Proc: 0]p: generate_solver: 0.017 [ms]
[OGL LOG][Proc: 0]p: solve: 737.487 [ms]
[OGL LOG][Proc: 0]p: copy_x_back: 0.373 [ms]
[OGL LOG][lduLduBase.H:330] 
Statistics:
	Time per iteration: 2304 [mu s]
	Time per residual norm calculation: 1106.000000 [mu s]
	Time per iteration and DOF: 2.304000 [ns]
	Retrieve results bandwidth 2.680000 [GByte/s]
[OGL LOG][Proc: 0]p: solve_multi_gpu: 752.152 [ms]
BJcudaGKOCG:  Solving for p, Initial residual = 0.0445134, Final residual = 9.00562e-05, No Iterations 320
[INFO] SolveP: 759.377 [ms]
time step continuity errors : sum local = 1.43035e-08, global = 3.89168e-21, cumulative = -7.12543e-21
[INFO] ContinuityError: 2.708 [ms]
[INFO] CorrectBoundary: 0.242 [ms]
[INFO] PISOStep: 799.341 [ms]
[INFO] MatrixAssemblyPI: 20.547 [ms]
[INFO] AdjustPhi: 0.966 [ms]
[INFO] ConstrainPressure: 0.002 [ms]
[INFO] MatrixAssemblyPII: 6.88 [ms]
[OGL LOG][Proc: 0]: global_index_init: 0.012 [ms]
[OGL LOG][Proc: 0]p_local_coeffs: call_update: 0 [ms]
[OGL LOG][Proc: 0]p_non_local_coeffs: call_update: 0 [ms]
[OGL LOG][Proc: 0]p: update_local_matrix_data: 5.308 [ms]
[OGL LOG][Proc: 0]p: update_non_local_matrix_data: 0.221 [ms]
[OGL LOG][Proc: 0]p: regenerate_distributed_matrix: 11.684 [ms]
[OGL LOG][Proc: 0]p_matrix: call_update: 12.586 [ms]
[OGL LOG][Proc: 0]p_rhs: call_update: 0.348 [ms]
[OGL LOG][Preconditioner.H:121] Generate preconditioner BJ MaxBlockSize 1
[OGL LOG][Proc: 0]p: init_precond: 0.48 [ms]
[OGL LOG][StoppingCriterion.H:239] Creating stopping criterion with minIter 192 frequency 8
[OGL LOG][Proc: 0]p: generate_solver: 0.014 [ms]
[OGL LOG][Proc: 0]p: solve: 727.311 [ms]
[OGL LOG][Proc: 0]p: copy_x_back: 0.363 [ms]
[OGL LOG][lduLduBase.H:330] 
Statistics:
	Time per iteration: 2323 [mu s]
	Time per residual norm calculation: 1252.000000 [mu s]
	Time per iteration and DOF: 2.323000 [ns]
	Retrieve results bandwidth 2.754000 [GByte/s]
[OGL LOG][Proc: 0]p: solve_multi_gpu: 742.624 [ms]
BJcudaGKOCG:  Solving for p, Initial residual = 0.0375488, Final residual = 8.81157e-05, No Iterations 313
[INFO] SolveP: 749.456 [ms]
time step continuity errors : sum local = 1.30094e-08, global = -6.98983e-21, cumulative = -1.41153e-20
[INFO] ContinuityError: 2.482 [ms]
[INFO] CorrectBoundary: 0.231 [ms]
[INFO] PISOStep: 788.586 [ms]
[INFO] TimeStep: 1768.34 [ms]
ExecutionTime = 48.35 s  ClockTime = 50 s

Time = 0.0055

Courant Number mean: 0.0612663 max: 0.473199
[INFO] MatrixAssemblyU: 18.956 [ms]
DILUPBiCGStab:  Solving for Ux, Initial residual = 0.00813329, Final residual = 2.5187e-05, No Iterations 5
DILUPBiCGStab:  Solving for Uy, Initial residual = 0.0174661, Final residual = 3.94268e-05, No Iterations 5
DILUPBiCGStab:  Solving for Uz, Initial residual = 0.0338906, Final residual = 8.55392e-05, No Iterations 5
[INFO] MomentumPredictor: 158.319 [ms]
[INFO] MatrixAssemblyPI: 20.666 [ms]
[INFO] AdjustPhi: 0.941 [ms]
[INFO] ConstrainPressure: 0.002 [ms]
[INFO] MatrixAssemblyPII: 6.442 [ms]
[OGL LOG][Proc: 0]: global_index_init: 0.017 [ms]
[OGL LOG][Proc: 0]p_local_coeffs: call_update: 0 [ms]
[OGL LOG][Proc: 0]p_non_local_coeffs: call_update: 0 [ms]
[OGL LOG][Proc: 0]p: update_local_matrix_data: 5.343 [ms]
[OGL LOG][Proc: 0]p: update_non_local_matrix_data: 0.214 [ms]
[OGL LOG][Proc: 0]p: regenerate_distributed_matrix: 11.542 [ms]
[OGL LOG][Proc: 0]p_matrix: call_update: 12.079 [ms]
[OGL LOG][Proc: 0]p_rhs: call_update: 0.836 [ms]
[OGL LOG][Preconditioner.H:121] Generate preconditioner BJ MaxBlockSize 1
[OGL LOG][Proc: 0]p: init_precond: 0.336 [ms]
[OGL LOG][StoppingCriterion.H:239] Creating stopping criterion with minIter 187 frequency 11
[OGL LOG][Proc: 0]p: generate_solver: 0.017 [ms]
[OGL LOG][Proc: 0]p: solve: 739.205 [ms]
[OGL LOG][Proc: 0]p: copy_x_back: 0.379 [ms]
[OGL LOG][lduLduBase.H:330] 
Statistics:
	Time per iteration: 2310 [mu s]
	Time per residual norm calculation: 1110.000000 [mu s]
	Time per iteration and DOF: 2.310000 [ns]
	Retrieve results bandwidth 2.638000 [GByte/s]
[OGL LOG][Proc: 0]p: solve_multi_gpu: 754.033 [ms]
BJcudaGKOCG:  Solving for p, Initial residual = 0.0350045, Final residual = 7.88022e-05, No Iterations 320
[INFO] SolveP: 762.017 [ms]
time step continuity errors : sum local = 1.18548e-08, global = 2.45487e-21, cumulative = -1.16604e-20
[INFO] ContinuityError: 3.99 [ms]
[INFO] CorrectBoundary: 0.388 [ms]
[INFO] PISOStep: 802.999 [ms]
[INFO] MatrixAssemblyPI: 20.902 [ms]
[INFO] AdjustPhi: 1.422 [ms]
[INFO] ConstrainPressure: 0.002 [ms]
[INFO] MatrixAssemblyPII: 6.33 [ms]
[OGL LOG][Proc: 0]: global_index_init: 0.013 [ms]
[OGL LOG][Proc: 0]p_local_coeffs: call_update: 0 [ms]
[OGL LOG][Proc: 0]p_non_local_coeffs: call_update: 0 [ms]
[OGL LOG][Proc: 0]p: update_local_matrix_data: 5.308 [ms]
[OGL LOG][Proc: 0]p: update_non_local_matrix_data: 0.255 [ms]
[OGL LOG][Proc: 0]p: regenerate_distributed_matrix: 13.081 [ms]
[OGL LOG][Proc: 0]p_matrix: call_update: 14.025 [ms]
[OGL LOG][Proc: 0]p_rhs: call_update: 0.483 [ms]
[OGL LOG][Preconditioner.H:121] Generate preconditioner BJ MaxBlockSize 1
[OGL LOG][Proc: 0]p: init_precond: 0.325 [ms]
[OGL LOG][StoppingCriterion.H:239] Creating stopping criterion with minIter 192 frequency 8
[OGL LOG][Proc: 0]p: generate_solver: 0.014 [ms]
[OGL LOG][Proc: 0]p: solve: 726.874 [ms]
[OGL LOG][Proc: 0]p: copy_x_back: 0.362 [ms]
[OGL LOG][lduLduBase.H:330] 
Statistics:
	Time per iteration: 2322 [mu s]
	Time per residual norm calculation: 1108.000000 [mu s]
	Time per iteration and DOF: 2.322000 [ns]
	Retrieve results bandwidth 2.762000 [GByte/s]
[OGL LOG][Proc: 0]p: solve_multi_gpu: 743.234 [ms]
BJcudaGKOCG:  Solving for p, Initial residual = 0.029726, Final residual = 8.60337e-05, No Iterations 313
[INFO] SolveP: 750.495 [ms]
time step continuity errors : sum local = 1.22289e-08, global = 5.1492e-23, cumulative = -1.16089e-20
[INFO] ContinuityError: 2.371 [ms]
[INFO] CorrectBoundary: 0.127 [ms]
[INFO] PISOStep: 790.032 [ms]
[INFO] TimeStep: 1772.98 [ms]
ExecutionTime = 50.12 s  ClockTime = 51 s

Time = 0.006

Courant Number mean: 0.0631375 max: 0.474175
[INFO] MatrixAssemblyU: 18.86 [ms]
DILUPBiCGStab:  Solving for Ux, Initial residual = 0.00728789, Final residual = 2.20691e-05, No Iterations 5
DILUPBiCGStab:  Solving for Uy, Initial residual = 0.0155782, Final residual = 3.39332e-05, No Iterations 5
DILUPBiCGStab:  Solving for Uz, Initial residual = 0.0309317, Final residual = 7.45023e-05, No Iterations 5
[INFO] MomentumPredictor: 158.198 [ms]
[INFO] MatrixAssemblyPI: 20.479 [ms]
[INFO] AdjustPhi: 0.909 [ms]
[INFO] ConstrainPressure: 0.002 [ms]
[INFO] MatrixAssemblyPII: 6.344 [ms]
[OGL LOG][Proc: 0]: global_index_init: 0.014 [ms]
[OGL LOG][Proc: 0]p_local_coeffs: call_update: 0 [ms]
[OGL LOG][Proc: 0]p_non_local_coeffs: call_update: 0 [ms]
[OGL LOG][Proc: 0]p: update_local_matrix_data: 5.3 [ms]
[OGL LOG][Proc: 0]p: update_non_local_matrix_data: 0.21 [ms]
[OGL LOG][Proc: 0]p: regenerate_distributed_matrix: 11.289 [ms]
[OGL LOG][Proc: 0]p_matrix: call_update: 12.202 [ms]
[OGL LOG][Proc: 0]p_rhs: call_update: 0.272 [ms]
[OGL LOG][Preconditioner.H:121] Generate preconditioner BJ MaxBlockSize 1
[OGL LOG][Proc: 0]p: init_precond: 0.488 [ms]
[OGL LOG][StoppingCriterion.H:239] Creating stopping criterion with minIter 187 frequency 7
[OGL LOG][Proc: 0]p: generate_solver: 0.014 [ms]
[OGL LOG][Proc: 0]p: solve: 787.177 [ms]
[OGL LOG][Proc: 0]p: copy_x_back: 0.408 [ms]
[OGL LOG][lduLduBase.H:330] 
Statistics:
	Time per iteration: 2335 [mu s]
	Time per residual norm calculation: 1106.000000 [mu s]
	Time per iteration and DOF: 2.335000 [ns]
	Retrieve results bandwidth 2.450000 [GByte/s]
[OGL LOG][Proc: 0]p: solve_multi_gpu: 802.08 [ms]
BJcudaGKOCG:  Solving for p, Initial residual = 0.0250432, Final residual = 8.88538e-05, No Iterations 337
[INFO] SolveP: 809.051 [ms]
time step continuity errors : sum local = 1.47428e-08, global = 1.90644e-21, cumulative = -9.70246e-21
[INFO] ContinuityError: 3.994 [ms]
[INFO] CorrectBoundary: 0.098 [ms]
[INFO] PISOStep: 848.794 [ms]
[INFO] MatrixAssemblyPI: 21.028 [ms]
[INFO] AdjustPhi: 2.077 [ms]
[INFO] ConstrainPressure: 0.002 [ms]
[INFO] MatrixAssemblyPII: 6.341 [ms]
[OGL LOG][Proc: 0]: global_index_init: 0.017 [ms]
[OGL LOG][Proc: 0]p_local_coeffs: call_update: 0 [ms]
[OGL LOG][Proc: 0]p_non_local_coeffs: call_update: 0 [ms]
[OGL LOG][Proc: 0]p: update_local_matrix_data: 5.265 [ms]
[OGL LOG][Proc: 0]p: update_non_local_matrix_data: 0.223 [ms]
[OGL LOG][Proc: 0]p: regenerate_distributed_matrix: 13.206 [ms]
[OGL LOG][Proc: 0]p_matrix: call_update: 14.149 [ms]
[OGL LOG][Proc: 0]p_rhs: call_update: 0.288 [ms]
[OGL LOG][Preconditioner.H:121] Generate preconditioner BJ MaxBlockSize 1
[OGL LOG][Proc: 0]p: init_precond: 0.48 [ms]
[OGL LOG][StoppingCriterion.H:239] Creating stopping criterion with minIter 202 frequency 8
[OGL LOG][Proc: 0]p: generate_solver: 0.013 [ms]
[OGL LOG][Proc: 0]p: solve: 724.747 [ms]
[OGL LOG][Proc: 0]p: copy_x_back: 0.366 [ms]
[OGL LOG][lduLduBase.H:330] 
Statistics:
	Time per iteration: 2315 [mu s]
	Time per residual norm calculation: 1108.000000 [mu s]
	Time per iteration and DOF: 2.315000 [ns]
	Retrieve results bandwidth 2.732000 [GByte/s]
[OGL LOG][Proc: 0]p: solve_multi_gpu: 741.139 [ms]
BJcudaGKOCG:  Solving for p, Initial residual = 0.0218555, Final residual = 8.50802e-05, No Iterations 313
[INFO] SolveP: 748.392 [ms]
time step continuity errors : sum local = 1.27452e-08, global = 2.15625e-21, cumulative = -7.54621e-21
[INFO] ContinuityError: 4.987 [ms]
[INFO] CorrectBoundary: 0.668 [ms]
[INFO] PISOStep: 791.852 [ms]
[INFO] TimeStep: 1820.39 [ms]
ExecutionTime = 51.93 s  ClockTime = 53 s

Time = 0.0065

Courant Number mean: 0.0648411 max: 0.475011
[INFO] MatrixAssemblyU: 18.368 [ms]
DILUPBiCGStab:  Solving for Ux, Initial residual = 0.0065545, Final residual = 1.91987e-05, No Iterations 5
DILUPBiCGStab:  Solving for Uy, Initial residual = 0.0140731, Final residual = 3.06593e-05, No Iterations 5
DILUPBiCGStab:  Solving for Uz, Initial residual = 0.0281184, Final residual = 7.37766e-05, No Iterations 5
[INFO] MomentumPredictor: 160.73 [ms]
[INFO] MatrixAssemblyPI: 20.529 [ms]
[INFO] AdjustPhi: 0.908 [ms]
[INFO] ConstrainPressure: 0.002 [ms]
[INFO] MatrixAssemblyPII: 6.339 [ms]
[OGL LOG][Proc: 0]: global_index_init: 0.018 [ms]
[OGL LOG][Proc: 0]p_local_coeffs: call_update: 0 [ms]
[OGL LOG][Proc: 0]p_non_local_coeffs: call_update: 0 [ms]
[OGL LOG][Proc: 0]p: update_local_matrix_data: 5.239 [ms]
[OGL LOG][Proc: 0]p: update_non_local_matrix_data: 0.248 [ms]
[OGL LOG][Proc: 0]p: regenerate_distributed_matrix: 13.6 [ms]
[OGL LOG][Proc: 0]p_matrix: call_update: 14.29 [ms]
[OGL LOG][Proc: 0]p_rhs: call_update: 0.687 [ms]
[OGL LOG][Preconditioner.H:121] Generate preconditioner BJ MaxBlockSize 1
[OGL LOG][Proc: 0]p: init_precond: 0.34 [ms]
[OGL LOG][StoppingCriterion.H:239] Creating stopping criterion with minIter 187 frequency 7
[OGL LOG][Proc: 0]p: generate_solver: 0.014 [ms]
[OGL LOG][Proc: 0]p: solve: 738.831 [ms]
[OGL LOG][Proc: 0]p: copy_x_back: 0.693 [ms]
[OGL LOG][lduLduBase.H:330] 
Statistics:
	Time per iteration: 2338 [mu s]
	Time per residual norm calculation: 1113.000000 [mu s]
	Time per iteration and DOF: 2.338000 [ns]
	Retrieve results bandwidth 1.443000 [GByte/s]
[OGL LOG][Proc: 0]p: solve_multi_gpu: 756.625 [ms]
BJcudaGKOCG:  Solving for p, Initial residual = 0.0207256, Final residual = 9.42296e-05, No Iterations 316
[INFO] SolveP: 763.462 [ms]
time step continuity errors : sum local = 1.49549e-08, global = -8.72055e-21, cumulative = -1.62668e-20
[INFO] ContinuityError: 2.479 [ms]
[INFO] CorrectBoundary: 0.124 [ms]
[INFO] PISOStep: 804.265 [ms]
[INFO] MatrixAssemblyPI: 21.179 [ms]
[INFO] AdjustPhi: 0.971 [ms]
[INFO] ConstrainPressure: 0.002 [ms]
[INFO] MatrixAssemblyPII: 6.718 [ms]
[OGL LOG][Proc: 0]: global_index_init: 0.019 [ms]
[OGL LOG][Proc: 0]p_local_coeffs: call_update: 0 [ms]
[OGL LOG][Proc: 0]p_non_local_coeffs: call_update: 0 [ms]
[OGL LOG][Proc: 0]p: update_local_matrix_data: 5.493 [ms]
[OGL LOG][Proc: 0]p: update_non_local_matrix_data: 0.249 [ms]
[OGL LOG][Proc: 0]p: regenerate_distributed_matrix: 14.516 [ms]
[OGL LOG][Proc: 0]p_matrix: call_update: 15.373 [ms]
[OGL LOG][Proc: 0]p_rhs: call_update: 0.398 [ms]
[OGL LOG][Preconditioner.H:121] Generate preconditioner BJ MaxBlockSize 1
[OGL LOG][Proc: 0]p: init_precond: 0.489 [ms]
[OGL LOG][StoppingCriterion.H:239] Creating stopping criterion with minIter 189 frequency 7
[OGL LOG][Proc: 0]p: generate_solver: 0.012 [ms]
[OGL LOG][Proc: 0]p: solve: 721.963 [ms]
[OGL LOG][Proc: 0]p: copy_x_back: 0.371 [ms]
[OGL LOG][lduLduBase.H:330] 
Statistics:
	Time per iteration: 2336 [mu s]
	Time per residual norm calculation: 1107.000000 [mu s]
	Time per iteration and DOF: 2.336000 [ns]
	Retrieve results bandwidth 2.695000 [GByte/s]
[OGL LOG][Proc: 0]p: solve_multi_gpu: 739.337 [ms]
BJcudaGKOCG:  Solving for p, Initial residual = 0.0182288, Final residual = 9.27901e-05, No Iterations 309
[INFO] SolveP: 747.613 [ms]
time step continuity errors : sum local = 1.33572e-08, global = 1.11694e-20, cumulative = -5.0974e-21
[INFO] ContinuityError: 4.774 [ms]
[INFO] CorrectBoundary: 0.697 [ms]
[INFO] PISOStep: 790.435 [ms]
[INFO] TimeStep: 1777.22 [ms]
ExecutionTime = 53.71 s  ClockTime = 55 s

Time = 0.007

Courant Number mean: 0.0664084 max: 0.475739
[INFO] MatrixAssemblyU: 18.488 [ms]
DILUPBiCGStab:  Solving for Ux, Initial residual = 0.00596667, Final residual = 1.71836e-05, No Iterations 5
DILUPBiCGStab:  Solving for Uy, Initial residual = 0.0127597, Final residual = 2.76964e-05, No Iterations 5
DILUPBiCGStab:  Solving for Uz, Initial residual = 0.0262238, Final residual = 7.14016e-05, No Iterations 5
[INFO] MomentumPredictor: 160.421 [ms]
[INFO] MatrixAssemblyPI: 20.607 [ms]
[INFO] AdjustPhi: 0.916 [ms]
[INFO] ConstrainPressure: 0.002 [ms]
[INFO] MatrixAssemblyPII: 6.362 [ms]
[OGL LOG][Proc: 0]: global_index_init: 0.018 [ms]
[OGL LOG][Proc: 0]p_local_coeffs: call_update: 0 [ms]
[OGL LOG][Proc: 0]p_non_local_coeffs: call_update: 0 [ms]
[OGL LOG][Proc: 0]p: update_local_matrix_data: 5.227 [ms]
[OGL LOG][Proc: 0]p: update_non_local_matrix_data: 0.217 [ms]
[OGL LOG][Proc: 0]p: regenerate_distributed_matrix: 14.062 [ms]
[OGL LOG][Proc: 0]p_matrix: call_update: 14.859 [ms]
[OGL LOG][Proc: 0]p_rhs: call_update: 0.574 [ms]
[OGL LOG][Preconditioner.H:121] Generate preconditioner BJ MaxBlockSize 1
[OGL LOG][Proc: 0]p: init_precond: 0.325 [ms]
[OGL LOG][StoppingCriterion.H:239] Creating stopping criterion with minIter 185 frequency 7
[OGL LOG][Proc: 0]p: generate_solver: 0.013 [ms]
[OGL LOG][Proc: 0]p: solve: 1627.01 [ms]
[OGL LOG][Proc: 0]p: copy_x_back: 0.408 [ms]
[OGL LOG][lduLduBase.H:330] 
Statistics:
	Time per iteration: 2368 [mu s]
	Time per residual norm calculation: 960.000000 [mu s]
	Time per iteration and DOF: 2.368000 [ns]
	Retrieve results bandwidth 2.450000 [GByte/s]
[OGL LOG][Proc: 0]p: solve_multi_gpu: 1644.8 [ms]
BJcudaGKOCG:  Solving for p, Initial residual = 0.0164425, Final residual = 8.5369e-05, No Iterations 687
[INFO] SolveP: 1651.85 [ms]
time step continuity errors : sum local = 1.19454e-08, global = -1.16056e-20, cumulative = -1.6703e-20
[INFO] ContinuityError: 2.819 [ms]
[INFO] CorrectBoundary: 0.129 [ms]
[INFO] PISOStep: 1691.17 [ms]
[INFO] MatrixAssemblyPI: 19.765 [ms]
[INFO] AdjustPhi: 0.989 [ms]
[INFO] ConstrainPressure: 0.002 [ms]
[INFO] MatrixAssemblyPII: 6.377 [ms]
[OGL LOG][Proc: 0]: global_index_init: 0.014 [ms]
[OGL LOG][Proc: 0]p_local_coeffs: call_update: 0 [ms]
[OGL LOG][Proc: 0]p_non_local_coeffs: call_update: 0 [ms]
[OGL LOG][Proc: 0]p: update_local_matrix_data: 5.052 [ms]
[OGL LOG][Proc: 0]p: update_non_local_matrix_data: 0.217 [ms]
[OGL LOG][Proc: 0]p: regenerate_distributed_matrix: 12 [ms]
[OGL LOG][Proc: 0]p_matrix: call_update: 12.683 [ms]
[OGL LOG][Proc: 0]p_rhs: call_update: 0.551 [ms]
[OGL LOG][Preconditioner.H:121] Generate preconditioner BJ MaxBlockSize 1
[OGL LOG][Proc: 0]p: init_precond: 0.335 [ms]
[OGL LOG][StoppingCriterion.H:239] Creating stopping criterion with minIter 412 frequency 11
[OGL LOG][Proc: 0]p: generate_solver: 0.013 [ms]
[OGL LOG][Proc: 0]p: solve: 1559.85 [ms]
[OGL LOG][Proc: 0]p: copy_x_back: 0.368 [ms]
[OGL LOG][lduLduBase.H:330] 
Statistics:
	Time per iteration: 2283 [mu s]
	Time per residual norm calculation: 1103.000000 [mu s]
	Time per iteration and DOF: 2.283000 [ns]
	Retrieve results bandwidth 2.717000 [GByte/s]
[OGL LOG][Proc: 0]p: solve_multi_gpu: 1574.83 [ms]
BJcudaGKOCG:  Solving for p, Initial residual = 0.0149006, Final residual = 8.34341e-05, No Iterations 683
[INFO] SolveP: 1581.82 [ms]
time step continuity errors : sum local = 1.16808e-08, global = -6.70081e-22, cumulative = -1.73731e-20
[INFO] ContinuityError: 2.528 [ms]
[INFO] CorrectBoundary: 0.087 [ms]
[INFO] PISOStep: 1619.67 [ms]
[INFO] TimeStep: 3492.86 [ms]
ExecutionTime = 57.19 s  ClockTime = 58 s

Time = 0.0075

Courant Number mean: 0.067855 max: 0.47638
[INFO] MatrixAssemblyU: 18.891 [ms]
DILUPBiCGStab:  Solving for Ux, Initial residual = 0.00543946, Final residual = 1.5304e-05, No Iterations 5
DILUPBiCGStab:  Solving for Uy, Initial residual = 0.0116666, Final residual = 2.50856e-05, No Iterations 5
DILUPBiCGStab:  Solving for Uz, Initial residual = 0.0235535, Final residual = 5.28048e-05, No Iterations 5
[INFO] MomentumPredictor: 157.301 [ms]
[INFO] MatrixAssemblyPI: 20.363 [ms]
[INFO] AdjustPhi: 0.97 [ms]
[INFO] ConstrainPressure: 0.002 [ms]
[INFO] MatrixAssemblyPII: 6.435 [ms]
[OGL LOG][Proc: 0]: global_index_init: 0.029 [ms]
[OGL LOG][Proc: 0]p_local_coeffs: call_update: 0 [ms]
[OGL LOG][Proc: 0]p_non_local_coeffs: call_update: 0 [ms]
[OGL LOG][Proc: 0]p: update_local_matrix_data: 5.334 [ms]
[OGL LOG][Proc: 0]p: update_non_local_matrix_data: 0.231 [ms]
[OGL LOG][Proc: 0]p: regenerate_distributed_matrix: 11.421 [ms]
[OGL LOG][Proc: 0]p_matrix: call_update: 12.4 [ms]
[OGL LOG][Proc: 0]p_rhs: call_update: 0.354 [ms]
[OGL LOG][Preconditioner.H:121] Generate preconditioner BJ MaxBlockSize 1
[OGL LOG][Proc: 0]p: init_precond: 0.47 [ms]
[OGL LOG][StoppingCriterion.H:239] Creating stopping criterion with minIter 409 frequency 11
[OGL LOG][Proc: 0]p: generate_solver: 0.012 [ms]
[OGL LOG][Proc: 0]p: solve: 1560.05 [ms]
[OGL LOG][Proc: 0]p: copy_x_back: 0.518 [ms]
[OGL LOG][lduLduBase.H:330] 
Statistics:
	Time per iteration: 2284 [mu s]
	Time per residual norm calculation: 1255.000000 [mu s]
	Time per iteration and DOF: 2.284000 [ns]
	Retrieve results bandwidth 1.930000 [GByte/s]
[OGL LOG][Proc: 0]p: solve_multi_gpu: 1575.35 [ms]
BJcudaGKOCG:  Solving for p, Initial residual = 0.0142128, Final residual = 9.13437e-05, No Iterations 683
[INFO] SolveP: 1582.16 [ms]
time step continuity errors : sum local = 1.27669e-08, global = 2.87864e-21, cumulative = -1.44944e-20
[INFO] ContinuityError: 2.929 [ms]
[INFO] CorrectBoundary: 0.289 [ms]
[INFO] PISOStep: 1621.97 [ms]
[INFO] MatrixAssemblyPI: 20.5 [ms]
[INFO] AdjustPhi: 0.955 [ms]
[INFO] ConstrainPressure: 0.002 [ms]
[INFO] MatrixAssemblyPII: 6.334 [ms]
[OGL LOG][Proc: 0]: global_index_init: 0.013 [ms]
[OGL LOG][Proc: 0]p_local_coeffs: call_update: 0 [ms]
[OGL LOG][Proc: 0]p_non_local_coeffs: call_update: 0 [ms]
[OGL LOG][Proc: 0]p: update_local_matrix_data: 5.281 [ms]
[OGL LOG][Proc: 0]p: update_non_local_matrix_data: 0.252 [ms]
[OGL LOG][Proc: 0]p: regenerate_distributed_matrix: 12.354 [ms]
[OGL LOG][Proc: 0]p_matrix: call_update: 13.202 [ms]
[OGL LOG][Proc: 0]p_rhs: call_update: 0.433 [ms]
[OGL LOG][Preconditioner.H:121] Generate preconditioner BJ MaxBlockSize 1
[OGL LOG][Proc: 0]p: init_precond: 0.49 [ms]
[OGL LOG][StoppingCriterion.H:239] Creating stopping criterion with minIter 409 frequency 16
[OGL LOG][Proc: 0]p: generate_solver: 0.015 [ms]
[OGL LOG][Proc: 0]p: solve: 939.917 [ms]
[OGL LOG][Proc: 0]p: copy_x_back: 0.432 [ms]
[OGL LOG][lduLduBase.H:330] 
Statistics:
	Time per iteration: 2253 [mu s]
	Time per residual norm calculation: 1264.000000 [mu s]
	Time per iteration and DOF: 2.253000 [ns]
	Retrieve results bandwidth 2.314000 [GByte/s]
[OGL LOG][Proc: 0]p: solve_multi_gpu: 956.031 [ms]
BJcudaGKOCG:  Solving for p, Initial residual = 0.0129724, Final residual = 9.67185e-05, No Iterations 417
[INFO] SolveP: 963.136 [ms]
time step continuity errors : sum local = 1.42443e-08, global = 1.5643e-21, cumulative = -1.29301e-20
[INFO] ContinuityError: 2.467 [ms]
[INFO] CorrectBoundary: 0.092 [ms]
[INFO] PISOStep: 1002.29 [ms]
[INFO] TimeStep: 2803.21 [ms]
ExecutionTime = 59.99 s  ClockTime = 61 s

Time = 0.008

Courant Number mean: 0.0691917 max: 0.476948
[INFO] MatrixAssemblyU: 18.886 [ms]
DILUPBiCGStab:  Solving for Ux, Initial residual = 0.00499463, Final residual = 1.38397e-05, No Iterations 5
DILUPBiCGStab:  Solving for Uy, Initial residual = 0.0107119, Final residual = 2.2964e-05, No Iterations 5
DILUPBiCGStab:  Solving for Uz, Initial residual = 0.0218025, Final residual = 5.14889e-05, No Iterations 5
[INFO] MomentumPredictor: 159.109 [ms]
[INFO] MatrixAssemblyPI: 20.63 [ms]
[INFO] AdjustPhi: 0.912 [ms]
[INFO] ConstrainPressure: 0.002 [ms]
[INFO] MatrixAssemblyPII: 6.384 [ms]
[OGL LOG][Proc: 0]: global_index_init: 0.023 [ms]
[OGL LOG][Proc: 0]p_local_coeffs: call_update: 0 [ms]
[OGL LOG][Proc: 0]p_non_local_coeffs: call_update: 0 [ms]
[OGL LOG][Proc: 0]p: update_local_matrix_data: 5.19 [ms]
[OGL LOG][Proc: 0]p: update_non_local_matrix_data: 0.219 [ms]
[OGL LOG][Proc: 0]p: regenerate_distributed_matrix: 11.415 [ms]
[OGL LOG][Proc: 0]p_matrix: call_update: 12.384 [ms]
[OGL LOG][Proc: 0]p_rhs: call_update: 0.281 [ms]
[OGL LOG][Preconditioner.H:121] Generate preconditioner BJ MaxBlockSize 1
[OGL LOG][Proc: 0]p: init_precond: 0.488 [ms]
[OGL LOG][StoppingCriterion.H:239] Creating stopping criterion with minIter 250 frequency 12
[OGL LOG][Proc: 0]p: generate_solver: 0.019 [ms]
[OGL LOG][Proc: 0]p: solve: 1578.79 [ms]
[OGL LOG][Proc: 0]p: copy_x_back: 0.428 [ms]
[OGL LOG][lduLduBase.H:330] 
Statistics:
	Time per iteration: 2304 [mu s]
	Time per residual norm calculation: 1255.000000 [mu s]
	Time per iteration and DOF: 2.304000 [ns]
	Retrieve results bandwidth 2.336000 [GByte/s]
[OGL LOG][Proc: 0]p: solve_multi_gpu: 1594.13 [ms]
BJcudaGKOCG:  Solving for p, Initial residual = 0.0119486, Final residual = 7.30689e-05, No Iterations 685
[INFO] SolveP: 1600.79 [ms]
time step continuity errors : sum local = 1.02159e-08, global = 4.06598e-21, cumulative = -8.86416e-21
[INFO] ContinuityError: 2.375 [ms]
[INFO] CorrectBoundary: 0.097 [ms]
[INFO] PISOStep: 1639.34 [ms]
[INFO] MatrixAssemblyPI: 19.819 [ms]
[INFO] AdjustPhi: 0.939 [ms]
[INFO] ConstrainPressure: 0.002 [ms]
[INFO] MatrixAssemblyPII: 6.345 [ms]
[OGL LOG][Proc: 0]: global_index_init: 0.015 [ms]
[OGL LOG][Proc: 0]p_local_coeffs: call_update: 0 [ms]
[OGL LOG][Proc: 0]p_non_local_coeffs: call_update: 0 [ms]
[OGL LOG][Proc: 0]p: update_local_matrix_data: 5.218 [ms]
[OGL LOG][Proc: 0]p: update_non_local_matrix_data: 0.225 [ms]
[OGL LOG][Proc: 0]p: regenerate_distributed_matrix: 11.712 [ms]
[OGL LOG][Proc: 0]p_matrix: call_update: 12.567 [ms]
[OGL LOG][Proc: 0]p_rhs: call_update: 0.43 [ms]
[OGL LOG][Preconditioner.H:121] Generate preconditioner BJ MaxBlockSize 1
[OGL LOG][Proc: 0]p: init_precond: 0.48 [ms]
[OGL LOG][StoppingCriterion.H:239] Creating stopping criterion with minIter 411 frequency 16
[OGL LOG][Proc: 0]p: generate_solver: 0.016 [ms]
[OGL LOG][Proc: 0]p: solve: 1565.3 [ms]
[OGL LOG][Proc: 0]p: copy_x_back: 0.369 [ms]
[OGL LOG][lduLduBase.H:330] 
Statistics:
	Time per iteration: 2271 [mu s]
	Time per residual norm calculation: 1105.000000 [mu s]
	Time per iteration and DOF: 2.271000 [ns]
	Retrieve results bandwidth 2.710000 [GByte/s]
[OGL LOG][Proc: 0]p: solve_multi_gpu: 1580.38 [ms]
BJcudaGKOCG:  Solving for p, Initial residual = 0.0110914, Final residual = 5.75181e-05, No Iterations 689
[INFO] SolveP: 1587.83 [ms]
time step continuity errors : sum local = 8.04445e-09, global = 2.90105e-21, cumulative = -5.96311e-21
[INFO] ContinuityError: 4.001 [ms]
[INFO] CorrectBoundary: 0.48 [ms]
[INFO] PISOStep: 1628.5 [ms]
[INFO] TimeStep: 3448.58 [ms]
ExecutionTime = 63.43 s  ClockTime = 65 s

Time = 0.0085

Courant Number mean: 0.0704368 max: 0.477455
[INFO] MatrixAssemblyU: 18.641 [ms]
DILUPBiCGStab:  Solving for Ux, Initial residual = 0.00460006, Final residual = 1.25149e-05, No Iterations 5
DILUPBiCGStab:  Solving for Uy, Initial residual = 0.00988934, Final residual = 2.10125e-05, No Iterations 5
DILUPBiCGStab:  Solving for Uz, Initial residual = 0.0200095, Final residual = 4.31255e-05, No Iterations 5
[INFO] MomentumPredictor: 160.374 [ms]
[INFO] MatrixAssemblyPI: 20.532 [ms]
[INFO] AdjustPhi: 1.199 [ms]
[INFO] ConstrainPressure: 0.002 [ms]
[INFO] MatrixAssemblyPII: 6.365 [ms]
[OGL LOG][Proc: 0]: global_index_init: 0.025 [ms]
[OGL LOG][Proc: 0]p_local_coeffs: call_update: 0 [ms]
[OGL LOG][Proc: 0]p_non_local_coeffs: call_update: 0 [ms]
[OGL LOG][Proc: 0]p: update_local_matrix_data: 5.32 [ms]
[OGL LOG][Proc: 0]p: update_non_local_matrix_data: 0.209 [ms]
[OGL LOG][Proc: 0]p: regenerate_distributed_matrix: 12.861 [ms]
[OGL LOG][Proc: 0]p_matrix: call_update: 13.566 [ms]
[OGL LOG][Proc: 0]p_rhs: call_update: 0.532 [ms]
[OGL LOG][Preconditioner.H:121] Generate preconditioner BJ MaxBlockSize 1
[OGL LOG][Proc: 0]p: init_precond: 0.493 [ms]
[OGL LOG][StoppingCriterion.H:239] Creating stopping criterion with minIter 413 frequency 11
[OGL LOG][Proc: 0]p: generate_solver: 0.013 [ms]
[OGL LOG][Proc: 0]p: solve: 942.802 [ms]
[OGL LOG][Proc: 0]p: copy_x_back: 0.367 [ms]
[OGL LOG][lduLduBase.H:330] 
Statistics:
	Time per iteration: 2250 [mu s]
	Time per residual norm calculation: 1111.000000 [mu s]
	Time per iteration and DOF: 2.250000 [ns]
	Retrieve results bandwidth 2.724000 [GByte/s]
[OGL LOG][Proc: 0]p: solve_multi_gpu: 959.055 [ms]
BJcudaGKOCG:  Solving for p, Initial residual = 0.0107005, Final residual = 6.73741e-05, No Iterations 419
[INFO] SolveP: 966.216 [ms]
time step continuity errors : sum local = 9.88852e-09, global = -2.65733e-21, cumulative = -8.62044e-21
[INFO] ContinuityError: 2.462 [ms]
[INFO] CorrectBoundary: 0.106 [ms]
[INFO] PISOStep: 1005.03 [ms]
[INFO] MatrixAssemblyPI: 19.804 [ms]
[INFO] AdjustPhi: 0.929 [ms]
[INFO] ConstrainPressure: 0.002 [ms]
[INFO] MatrixAssemblyPII: 6.348 [ms]
[OGL LOG][Proc: 0]: global_index_init: 0.021 [ms]
[OGL LOG][Proc: 0]p_local_coeffs: call_update: 0 [ms]
[OGL LOG][Proc: 0]p_non_local_coeffs: call_update: 0 [ms]
[OGL LOG][Proc: 0]p: update_local_matrix_data: 5.268 [ms]
[OGL LOG][Proc: 0]p: update_non_local_matrix_data: 0.225 [ms]
[OGL LOG][Proc: 0]p: regenerate_distributed_matrix: 11.419 [ms]
[OGL LOG][Proc: 0]p_matrix: call_update: 12.236 [ms]
[OGL LOG][Proc: 0]p_rhs: call_update: 0.431 [ms]
[OGL LOG][Preconditioner.H:121] Generate preconditioner BJ MaxBlockSize 1
[OGL LOG][Proc: 0]p: init_precond: 0.485 [ms]
[OGL LOG][StoppingCriterion.H:239] Creating stopping criterion with minIter 251 frequency 9
[OGL LOG][Proc: 0]p: generate_solver: 0.013 [ms]
[OGL LOG][Proc: 0]p: solve: 660.966 [ms]
[OGL LOG][Proc: 0]p: copy_x_back: 0.37 [ms]
[OGL LOG][lduLduBase.H:330] 
Statistics:
	Time per iteration: 2287 [mu s]
	Time per residual norm calculation: 1256.000000 [mu s]
	Time per iteration and DOF: 2.287000 [ns]
	Retrieve results bandwidth 2.702000 [GByte/s]
[OGL LOG][Proc: 0]p: solve_multi_gpu: 675.986 [ms]
BJcudaGKOCG:  Solving for p, Initial residual = 0.00998999, Final residual = 8.99114e-05, No Iterations 289
[INFO] SolveP: 682.795 [ms]
time step continuity errors : sum local = 1.27898e-08, global = -1.38788e-21, cumulative = -1.00083e-20
[INFO] ContinuityError: 4.733 [ms]
[INFO] CorrectBoundary: 1.27 [ms]
[INFO] PISOStep: 723.729 [ms]
[INFO] TimeStep: 1910.46 [ms]
ExecutionTime = 65.34 s  ClockTime = 67 s

Time = 0.009

Courant Number mean: 0.0715996 max: 0.477912
[INFO] MatrixAssemblyU: 18.995 [ms]
DILUPBiCGStab:  Solving for Ux, Initial residual = 0.00425597, Final residual = 1.14157e-05, No Iterations 5
DILUPBiCGStab:  Solving for Uy, Initial residual = 0.00916338, Final residual = 1.94483e-05, No Iterations 5
DILUPBiCGStab:  Solving for Uz, Initial residual = 0.0185507, Final residual = 4.03794e-05, No Iterations 5
[INFO] MomentumPredictor: 160.406 [ms]
[INFO] MatrixAssemblyPI: 20.851 [ms]
[INFO] AdjustPhi: 0.927 [ms]
[INFO] ConstrainPressure: 0.002 [ms]
[INFO] MatrixAssemblyPII: 6.38 [ms]
[OGL LOG][Proc: 0]: global_index_init: 0.015 [ms]
[OGL LOG][Proc: 0]p_local_coeffs: call_update: 0 [ms]
[OGL LOG][Proc: 0]p_non_local_coeffs: call_update: 0 [ms]
[OGL LOG][Proc: 0]p: update_local_matrix_data: 5.305 [ms]
[OGL LOG][Proc: 0]p: update_non_local_matrix_data: 0.245 [ms]
[OGL LOG][Proc: 0]p: regenerate_distributed_matrix: 13.466 [ms]
[OGL LOG][Proc: 0]p_matrix: call_update: 14.224 [ms]
[OGL LOG][Proc: 0]p_rhs: call_update: 0.534 [ms]
[OGL LOG][Preconditioner.H:121] Generate preconditioner BJ MaxBlockSize 1
[OGL LOG][Proc: 0]p: init_precond: 0.475 [ms]
[OGL LOG][StoppingCriterion.H:239] Creating stopping criterion with minIter 173 frequency 10
[OGL LOG][Proc: 0]p: generate_solver: 0.015 [ms]
[OGL LOG][Proc: 0]p: solve: 675.166 [ms]
[OGL LOG][Proc: 0]p: copy_x_back: 0.634 [ms]
[OGL LOG][lduLduBase.H:330] 
Statistics:
	Time per iteration: 2320 [mu s]
	Time per residual norm calculation: 1410.000000 [mu s]
	Time per iteration and DOF: 2.320000 [ns]
	Retrieve results bandwidth 1.577000 [GByte/s]
[OGL LOG][Proc: 0]p: solve_multi_gpu: 692.77 [ms]
BJcudaGKOCG:  Solving for p, Initial residual = 0.00942438, Final residual = 8.43169e-05, No Iterations 291
[INFO] SolveP: 699.819 [ms]
time step continuity errors : sum local = 1.25056e-08, global = -5.15096e-21, cumulative = -1.51593e-20
[INFO] ContinuityError: 2.506 [ms]
[INFO] CorrectBoundary: 0.122 [ms]
[INFO] PISOStep: 741.51 [ms]
[INFO] MatrixAssemblyPI: 21.262 [ms]
[INFO] AdjustPhi: 1.128 [ms]
[INFO] ConstrainPressure: 0.002 [ms]
[INFO] MatrixAssemblyPII: 6.727 [ms]
[OGL LOG][Proc: 0]: global_index_init: 0.017 [ms]
[OGL LOG][Proc: 0]p_local_coeffs: call_update: 0 [ms]
[OGL LOG][Proc: 0]p_non_local_coeffs: call_update: 0 [ms]
[OGL LOG][Proc: 0]p: update_local_matrix_data: 5.392 [ms]
[OGL LOG][Proc: 0]p: update_non_local_matrix_data: 0.247 [ms]
[OGL LOG][Proc: 0]p: regenerate_distributed_matrix: 13.985 [ms]
[OGL LOG][Proc: 0]p_matrix: call_update: 14.898 [ms]
[OGL LOG][Proc: 0]p_rhs: call_update: 0.41 [ms]
[OGL LOG][Preconditioner.H:121] Generate preconditioner BJ MaxBlockSize 1
[OGL LOG][Proc: 0]p: init_precond: 0.478 [ms]
[OGL LOG][StoppingCriterion.H:239] Creating stopping criterion with minIter 174 frequency 10
[OGL LOG][Proc: 0]p: generate_solver: 0.013 [ms]
[OGL LOG][Proc: 0]p: solve: 649.259 [ms]
[OGL LOG][Proc: 0]p: copy_x_back: 0.368 [ms]
[OGL LOG][lduLduBase.H:330] 
Statistics:
	Time per iteration: 2310 [mu s]
	Time per residual norm calculation: 1108.000000 [mu s]
	Time per iteration and DOF: 2.310000 [ns]
	Retrieve results bandwidth 2.717000 [GByte/s]
[OGL LOG][Proc: 0]p: solve_multi_gpu: 666.402 [ms]
BJcudaGKOCG:  Solving for p, Initial residual = 0.00887276, Final residual = 9.78175e-05, No Iterations 281
[INFO] SolveP: 673.815 [ms]
time step continuity errors : sum local = 1.38194e-08, global = -4.91202e-21, cumulative = -2.00713e-20
[INFO] ContinuityError: 4.109 [ms]
[INFO] CorrectBoundary: 0.111 [ms]
[INFO] PISOStep: 715.306 [ms]
[INFO] TimeStep: 1639.46 [ms]
ExecutionTime = 66.97 s  ClockTime = 68 s

Time = 0.0095

Courant Number mean: 0.0726862 max: 0.478326
[INFO] MatrixAssemblyU: 18.792 [ms]
DILUPBiCGStab:  Solving for Ux, Initial residual = 0.00394861, Final residual = 1.04393e-05, No Iterations 5
DILUPBiCGStab:  Solving for Uy, Initial residual = 0.00852663, Final residual = 1.79872e-05, No Iterations 5
DILUPBiCGStab:  Solving for Uz, Initial residual = 0.0172838, Final residual = 3.93246e-05, No Iterations 5
[INFO] MomentumPredictor: 159.83 [ms]
[INFO] MatrixAssemblyPI: 20.587 [ms]
[INFO] AdjustPhi: 0.907 [ms]
[INFO] ConstrainPressure: 0.002 [ms]
[INFO] MatrixAssemblyPII: 6.426 [ms]
[OGL LOG][Proc: 0]: global_index_init: 0.012 [ms]
[OGL LOG][Proc: 0]p_local_coeffs: call_update: 0 [ms]
[OGL LOG][Proc: 0]p_non_local_coeffs: call_update: 0 [ms]
[OGL LOG][Proc: 0]p: update_local_matrix_data: 5.326 [ms]
[OGL LOG][Proc: 0]p: update_non_local_matrix_data: 0.216 [ms]
[OGL LOG][Proc: 0]p: regenerate_distributed_matrix: 13.417 [ms]
[OGL LOG][Proc: 0]p_matrix: call_update: 14.141 [ms]
[OGL LOG][Proc: 0]p_rhs: call_update: 0.646 [ms]
[OGL LOG][Preconditioner.H:121] Generate preconditioner BJ MaxBlockSize 1
[OGL LOG][Proc: 0]p: init_precond: 0.487 [ms]
[OGL LOG][StoppingCriterion.H:239] Creating stopping criterion with minIter 168 frequency 7
[OGL LOG][Proc: 0]p: generate_solver: 0.012 [ms]
[OGL LOG][Proc: 0]p: solve: 676.017 [ms]
[OGL LOG][Proc: 0]p: copy_x_back: 0.4 [ms]
[OGL LOG][lduLduBase.H:330] 
Statistics:
	Time per iteration: 2347 [mu s]
	Time per residual norm calculation: 1108.000000 [mu s]
	Time per iteration and DOF: 2.347000 [ns]
	Retrieve results bandwidth 2.500000 [GByte/s]
[OGL LOG][Proc: 0]p: solve_multi_gpu: 692.675 [ms]
BJcudaGKOCG:  Solving for p, Initial residual = 0.00866531, Final residual = 8.29327e-05, No Iterations 288
[INFO] SolveP: 700.651 [ms]
time step continuity errors : sum local = 1.2408e-08, global = 5.14062e-21, cumulative = -1.49307e-20
[INFO] ContinuityError: 4.295 [ms]
[INFO] CorrectBoundary: 0.744 [ms]
[INFO] PISOStep: 742.034 [ms]
[INFO] MatrixAssemblyPI: 20.674 [ms]
[INFO] AdjustPhi: 1.685 [ms]
[INFO] ConstrainPressure: 0.003 [ms]
[INFO] MatrixAssemblyPII: 6.276 [ms]
[OGL LOG][Proc: 0]: global_index_init: 0.013 [ms]
[OGL LOG][Proc: 0]p_local_coeffs: call_update: 0 [ms]
[OGL LOG][Proc: 0]p_non_local_coeffs: call_update: 0 [ms]
[OGL LOG][Proc: 0]p: update_local_matrix_data: 5.154 [ms]
[OGL LOG][Proc: 0]p: update_non_local_matrix_data: 0.259 [ms]
[OGL LOG][Proc: 0]p: regenerate_distributed_matrix: 14.785 [ms]
[OGL LOG][Proc: 0]p_matrix: call_update: 15.706 [ms]
[OGL LOG][Proc: 0]p_rhs: call_update: 0.425 [ms]
[OGL LOG][Preconditioner.H:121] Generate preconditioner BJ MaxBlockSize 1
[OGL LOG][Proc: 0]p: init_precond: 0.487 [ms]
[OGL LOG][StoppingCriterion.H:239] Creating stopping criterion with minIter 172 frequency 7
[OGL LOG][Proc: 0]p: generate_solver: 0.014 [ms]
[OGL LOG][Proc: 0]p: solve: 655.712 [ms]
[OGL LOG][Proc: 0]p: copy_x_back: 0.367 [ms]
[OGL LOG][lduLduBase.H:330] 
Statistics:
	Time per iteration: 2333 [mu s]
	Time per residual norm calculation: 1258.000000 [mu s]
	Time per iteration and DOF: 2.333000 [ns]
	Retrieve results bandwidth 2.724000 [GByte/s]
[OGL LOG][Proc: 0]p: solve_multi_gpu: 674.431 [ms]
BJcudaGKOCG:  Solving for p, Initial residual = 0.00819879, Final residual = 8.90265e-05, No Iterations 281
[INFO] SolveP: 681.149 [ms]
time step continuity errors : sum local = 1.27505e-08, global = -6.91676e-21, cumulative = -2.18474e-20
[INFO] ContinuityError: 2.404 [ms]
[INFO] CorrectBoundary: 0.092 [ms]
[INFO] PISOStep: 721.414 [ms]
[INFO] TimeStep: 1645.17 [ms]
ExecutionTime = 68.62 s  ClockTime = 70 s

Time = 0.01

Courant Number mean: 0.0737032 max: 0.478702
[INFO] MatrixAssemblyU: 19.224 [ms]
DILUPBiCGStab:  Solving for Ux, Initial residual = 0.00368038, Final residual = 9.6012e-06, No Iterations 5
DILUPBiCGStab:  Solving for Uy, Initial residual = 0.00794541, Final residual = 1.68116e-05, No Iterations 5
DILUPBiCGStab:  Solving for Uz, Initial residual = 0.0163838, Final residual = 3.79709e-05, No Iterations 5
[INFO] MomentumPredictor: 158.607 [ms]
[INFO] MatrixAssemblyPI: 20.629 [ms]
[INFO] AdjustPhi: 0.906 [ms]
[INFO] ConstrainPressure: 0.002 [ms]
[INFO] MatrixAssemblyPII: 6.319 [ms]
[OGL LOG][Proc: 0]: global_index_init: 0.026 [ms]
[OGL LOG][Proc: 0]p_local_coeffs: call_update: 0 [ms]
[OGL LOG][Proc: 0]p_non_local_coeffs: call_update: 0 [ms]
[OGL LOG][Proc: 0]p: update_local_matrix_data: 5.255 [ms]
[OGL LOG][Proc: 0]p: update_non_local_matrix_data: 0.219 [ms]
[OGL LOG][Proc: 0]p: regenerate_distributed_matrix: 11.422 [ms]
[OGL LOG][Proc: 0]p_matrix: call_update: 12.242 [ms]
[OGL LOG][Proc: 0]p_rhs: call_update: 0.469 [ms]
[OGL LOG][Preconditioner.H:121] Generate preconditioner BJ MaxBlockSize 1
[OGL LOG][Proc: 0]p: init_precond: 0.483 [ms]
[OGL LOG][StoppingCriterion.H:239] Creating stopping criterion with minIter 168 frequency 10
[OGL LOG][Proc: 0]p: generate_solver: 0.013 [ms]
[OGL LOG][Proc: 0]p: solve: 697.911 [ms]
[OGL LOG][Proc: 0]p: copy_x_back: 0.381 [ms]
[OGL LOG][lduLduBase.H:330] 
Statistics:
	Time per iteration: 2318 [mu s]
	Time per residual norm calculation: 1102.000000 [mu s]
	Time per iteration and DOF: 2.318000 [ns]
	Retrieve results bandwidth 2.624000 [GByte/s]
[OGL LOG][Proc: 0]p: solve_multi_gpu: 712.77 [ms]
BJcudaGKOCG:  Solving for p, Initial residual = 0.00799793, Final residual = 8.04788e-05, No Iterations 301
[INFO] SolveP: 719.924 [ms]
time step continuity errors : sum local = 1.25048e-08, global = -4.63811e-21, cumulative = -2.64855e-20
[INFO] ContinuityError: 2.354 [ms]
[INFO] CorrectBoundary: 0.096 [ms]
[INFO] PISOStep: 758.27 [ms]
[INFO] MatrixAssemblyPI: 20.056 [ms]
[INFO] AdjustPhi: 0.906 [ms]
[INFO] ConstrainPressure: 0.002 [ms]
[INFO] MatrixAssemblyPII: 6.377 [ms]
[OGL LOG][Proc: 0]: global_index_init: 0.02 [ms]
[OGL LOG][Proc: 0]p_local_coeffs: call_update: 0 [ms]
[OGL LOG][Proc: 0]p_non_local_coeffs: call_update: 0 [ms]
[OGL LOG][Proc: 0]p: update_local_matrix_data: 5.334 [ms]
[OGL LOG][Proc: 0]p: update_non_local_matrix_data: 0.229 [ms]
[OGL LOG][Proc: 0]p: regenerate_distributed_matrix: 11.466 [ms]
[OGL LOG][Proc: 0]p_matrix: call_update: 12.381 [ms]
[OGL LOG][Proc: 0]p_rhs: call_update: 0.378 [ms]
[OGL LOG][Preconditioner.H:121] Generate preconditioner BJ MaxBlockSize 1
[OGL LOG][Proc: 0]p: init_precond: 0.484 [ms]
[OGL LOG][StoppingCriterion.H:239] Creating stopping criterion with minIter 180 frequency 7
[OGL LOG][Proc: 0]p: generate_solver: 0.014 [ms]
[OGL LOG][Proc: 0]p: solve: 671.153 [ms]
[OGL LOG][Proc: 0]p: copy_x_back: 0.366 [ms]
[OGL LOG][lduLduBase.H:330] 
Statistics:
	Time per iteration: 2330 [mu s]
	Time per residual norm calculation: 1102.000000 [mu s]
	Time per iteration and DOF: 2.330000 [ns]
	Retrieve results bandwidth 2.732000 [GByte/s]
[OGL LOG][Proc: 0]p: solve_multi_gpu: 685.775 [ms]
BJcudaGKOCG:  Solving for p, Initial residual = 0.00758508, Final residual = 8.95253e-05, No Iterations 288
[INFO] SolveP: 693.311 [ms]
time step continuity errors : sum local = 1.28426e-08, global = 1.76357e-21, cumulative = -2.4722e-20
[INFO] ContinuityError: 2.737 [ms]
[INFO] CorrectBoundary: 0.142 [ms]
[INFO] PISOStep: 731.921 [ms]
[INFO] TimeStep: 1670.77 [ms]
ExecutionTime = 70.28 s  ClockTime = 72 s

End

Finalising parallel run
