/*---------------------------------------------------------------------------*\
| =========                 |                                                 |
| \\      /  F ield         | OpenFOAM: The Open Source CFD Toolbox           |
|  \\    /   O peration     | Version:  2306                                  |
|   \\  /    A nd           | Website:  www.openfoam.com                      |
|    \\/     M anipulation  |                                                 |
\*---------------------------------------------------------------------------*/
Build  : a6e826bd55-20230630 OPENFOAM=2306 version=v2306
Arch   : "LSB;label=32;scalar=64"
Exec   : icoFoam -parallel -case /tmp/lidDrivenCavity3D/workspace/2ef902251b1a4925dbeceae7befe7d9e/case
Date   : Dec 09 2023
Time   : 09:53:42
Host   : nla-gpu2.ianm.kit.edu
PID    : 270538
I/O    : uncollated
Case   : /tmp/lidDrivenCavity3D/workspace/2ef902251b1a4925dbeceae7befe7d9e/case
nProcs : 16
Hosts  :
(
    (nla-gpu2.ianm.kit.edu 16)
)
Pstream initialized with:
    floatTransfer      : false
    nProcsSimpleSum    : 0
    nonBlockingExchange: 0 (tuning: 0)
    exchange algorithm : -1
    commsType          : nonBlocking
    polling iterations : 0
trapFpe: Floating point exception trapping enabled (FOAM_SIGFPE).
fileModificationChecking : Monitoring run-time modified files using timeStampMaster (fileModificationSkew 5, maxFileModificationPolls 20)
allowSystemOperations : Allowing user-supplied system call operations

// * * * * * * * * * * * * * * * * * * * * * * * * * * * * * * * * * * * * * //
Create time

--> FOAM Warning : 
    From void* Foam::dlLibraryTable::openLibrary(const Foam::fileName&, bool)
    in file db/dynamicLibrary/dlLibraryTable/dlLibraryTable.C at line 188
    Could not load "libpetscFoam.so"
libpetscFoam.so: cannot open shared object file: No such file or directory
Create mesh for time = 0


PISO: Operating solver in PISO mode

Reading transportProperties

Reading field p

Reading field U

Reading/calculating face flux field phi


Starting time loop

Time = 0.00025

Courant Number mean: 8.24341e-18 max: 2.08167e-14
[INFO] MatrixAssemblyU: 71.543 [ms]
DILUPBiCGStab:  Solving for Ux, Initial residual = 1, Final residual = 0.00994539, No Iterations 5
DILUPBiCGStab:  Solving for Uy:  solution singularity
DILUPBiCGStab:  Solving for Uz:  solution singularity
[INFO] MomentumPredictor: 282.566 [ms]
[INFO] MatrixAssemblyPI: 69.11 [ms]
[INFO] AdjustPhi: 6.863 [ms]
[INFO] ConstrainPressure: 0.012 [ms]
[INFO] MatrixAssemblyPII: 19.898 [ms]
nonePCG:  Solving for p, Initial residual = 1, Final residual = 9.86234e-05, No Iterations 1610
[INFO] SolveP: 10079 [ms]
time step continuity errors : sum local = 7.57086e-09, global = -1.64013e-21, cumulative = -1.64013e-21
[INFO] ContinuityError: 8.039 [ms]
[INFO] CorrectBoundary: 0.552 [ms]
[INFO] PISOStep: 10209.7 [ms]
[INFO] MatrixAssemblyPI: 67.182 [ms]
[INFO] AdjustPhi: 4.366 [ms]
[INFO] ConstrainPressure: 0.004 [ms]
[INFO] MatrixAssemblyPII: 20.431 [ms]
nonePCG:  Solving for p, Initial residual = 0.786384, Final residual = 9.68968e-05, No Iterations 1590
[INFO] SolveP: 9761.14 [ms]
time step continuity errors : sum local = 9.29777e-09, global = 4.76243e-23, cumulative = -1.5925e-21
[INFO] ContinuityError: 7.3 [ms]
[INFO] CorrectBoundary: 0.498 [ms]
[INFO] PISOStep: 9885.85 [ms]
[INFO] TimeStep: 20461 [ms]
ExecutionTime = 20.92 s  ClockTime = 21 s

Time = 0.0005

Courant Number mean: 0.0159459 max: 0.412549
[INFO] MatrixAssemblyU: 60.055 [ms]
DILUPBiCGStab:  Solving for Ux, Initial residual = 0.129572, Final residual = 0.00549869, No Iterations 5
DILUPBiCGStab:  Solving for Uy, Initial residual = 0.426965, Final residual = 0.0140636, No Iterations 5
DILUPBiCGStab:  Solving for Uz, Initial residual = 0.987077, Final residual = 0.0342228, No Iterations 5
[INFO] MomentumPredictor: 488.882 [ms]
[INFO] MatrixAssemblyPI: 67.848 [ms]
[INFO] AdjustPhi: 3.988 [ms]
[INFO] ConstrainPressure: 0.004 [ms]
[INFO] MatrixAssemblyPII: 19.914 [ms]
nonePCG:  Solving for p, Initial residual = 0.825153, Final residual = 9.9691e-05, No Iterations 1567
[INFO] SolveP: 9699.66 [ms]
time step continuity errors : sum local = 1.46839e-08, global = -3.60916e-21, cumulative = -5.20167e-21
[INFO] ContinuityError: 8.243 [ms]
[INFO] CorrectBoundary: 0.36 [ms]
[INFO] PISOStep: 9825.64 [ms]
[INFO] MatrixAssemblyPI: 66.837 [ms]
[INFO] AdjustPhi: 6.534 [ms]
[INFO] ConstrainPressure: 0.004 [ms]
[INFO] MatrixAssemblyPII: 20.261 [ms]
nonePCG:  Solving for p, Initial residual = 0.768305, Final residual = 9.744e-05, No Iterations 1563
[INFO] SolveP: 9658.78 [ms]
time step continuity errors : sum local = 1.46108e-08, global = -1.37267e-21, cumulative = -6.57434e-21
[INFO] ContinuityError: 7.82 [ms]
[INFO] CorrectBoundary: 0.5 [ms]
[INFO] PISOStep: 9785.83 [ms]
[INFO] TimeStep: 20169.4 [ms]
ExecutionTime = 40.99 s  ClockTime = 41 s

Time = 0.00075

Courant Number mean: 0.024329 max: 0.472012
[INFO] MatrixAssemblyU: 61.791 [ms]
DILUPBiCGStab:  Solving for Ux, Initial residual = 0.0547791, Final residual = 0.00187253, No Iterations 5
DILUPBiCGStab:  Solving for Uy, Initial residual = 0.182223, Final residual = 0.00762626, No Iterations 5
DILUPBiCGStab:  Solving for Uz, Initial residual = 0.810986, Final residual = 0.0252713, No Iterations 5
[INFO] MomentumPredictor: 485.882 [ms]
[INFO] MatrixAssemblyPI: 67.514 [ms]
[INFO] AdjustPhi: 4.283 [ms]
[INFO] ConstrainPressure: 0.004 [ms]
[INFO] MatrixAssemblyPII: 19.892 [ms]
nonePCG:  Solving for p, Initial residual = 0.849303, Final residual = 9.94077e-05, No Iterations 768
[INFO] SolveP: 4746.97 [ms]
time step continuity errors : sum local = 1.4635e-08, global = 1.32762e-21, cumulative = -5.24672e-21
[INFO] ContinuityError: 7.774 [ms]
[INFO] CorrectBoundary: 0.29 [ms]
[INFO] PISOStep: 4871.25 [ms]
[INFO] MatrixAssemblyPI: 66.029 [ms]
[INFO] AdjustPhi: 5.488 [ms]
[INFO] ConstrainPressure: 0.004 [ms]
[INFO] MatrixAssemblyPII: 20.505 [ms]
nonePCG:  Solving for p, Initial residual = 0.815747, Final residual = 9.72308e-05, No Iterations 764
[INFO] SolveP: 4747.71 [ms]
time step continuity errors : sum local = 1.31632e-08, global = 2.78514e-22, cumulative = -4.9682e-21
[INFO] ContinuityError: 7.154 [ms]
[INFO] CorrectBoundary: 0.296 [ms]
[INFO] PISOStep: 4871.2 [ms]
[INFO] TimeStep: 10298.7 [ms]
ExecutionTime = 51.25 s  ClockTime = 52 s

Time = 0.001

Courant Number mean: 0.0291952 max: 0.467755
[INFO] MatrixAssemblyU: 60.373 [ms]
DILUPBiCGStab:  Solving for Ux, Initial residual = 0.0346702, Final residual = 0.00124022, No Iterations 5
DILUPBiCGStab:  Solving for Uy, Initial residual = 0.129199, Final residual = 0.00473636, No Iterations 5
DILUPBiCGStab:  Solving for Uz, Initial residual = 0.614073, Final residual = 0.0156429, No Iterations 5
[INFO] MomentumPredictor: 487.471 [ms]
[INFO] MatrixAssemblyPI: 67.368 [ms]
[INFO] AdjustPhi: 4.153 [ms]
[INFO] ConstrainPressure: 0.004 [ms]
[INFO] MatrixAssemblyPII: 19.892 [ms]
nonePCG:  Solving for p, Initial residual = 0.770615, Final residual = 9.76858e-05, No Iterations 1572
[INFO] SolveP: 9698.08 [ms]
time step continuity errors : sum local = 1.19326e-08, global = 1.78062e-21, cumulative = -3.18759e-21
[INFO] ContinuityError: 7.921 [ms]
[INFO] CorrectBoundary: 0.327 [ms]
[INFO] PISOStep: 9823.18 [ms]
[INFO] MatrixAssemblyPI: 66.863 [ms]
[INFO] AdjustPhi: 4.154 [ms]
[INFO] ConstrainPressure: 0.004 [ms]
[INFO] MatrixAssemblyPII: 20.128 [ms]
nonePCG:  Solving for p, Initial residual = 0.707939, Final residual = 9.60181e-05, No Iterations 1570
[INFO] SolveP: 9705.59 [ms]
time step continuity errors : sum local = 1.18946e-08, global = 9.0586e-23, cumulative = -3.097e-21
[INFO] ContinuityError: 7.517 [ms]
[INFO] CorrectBoundary: 0.327 [ms]
[INFO] PISOStep: 9829.92 [ms]
[INFO] TimeStep: 20209.4 [ms]
ExecutionTime = 71.36 s  ClockTime = 72 s

Time = 0.00125

Courant Number mean: 0.0333379 max: 0.472933
[INFO] MatrixAssemblyU: 60.504 [ms]
DILUPBiCGStab:  Solving for Ux, Initial residual = 0.0271495, Final residual = 0.000903388, No Iterations 5
DILUPBiCGStab:  Solving for Uy, Initial residual = 0.0813794, Final residual = 0.00356315, No Iterations 5
DILUPBiCGStab:  Solving for Uz, Initial residual = 0.465273, Final residual = 0.0118305, No Iterations 5
[INFO] MomentumPredictor: 484.463 [ms]
[INFO] MatrixAssemblyPI: 67.552 [ms]
[INFO] AdjustPhi: 4.253 [ms]
[INFO] ConstrainPressure: 0.004 [ms]
[INFO] MatrixAssemblyPII: 20.092 [ms]
nonePCG:  Solving for p, Initial residual = 0.776202, Final residual = 9.76346e-05, No Iterations 1568
[INFO] SolveP: 9682.82 [ms]
time step continuity errors : sum local = 9.87936e-09, global = 7.74635e-22, cumulative = -2.32236e-21
[INFO] ContinuityError: 8.43 [ms]
[INFO] CorrectBoundary: 0.432 [ms]
[INFO] PISOStep: 9807.51 [ms]
[INFO] MatrixAssemblyPI: 66.767 [ms]
[INFO] AdjustPhi: 4.727 [ms]
[INFO] ConstrainPressure: 0.004 [ms]
[INFO] MatrixAssemblyPII: 20.066 [ms]
nonePCG:  Solving for p, Initial residual = 0.725191, Final residual = 9.61903e-05, No Iterations 1567
[INFO] SolveP: 9703.42 [ms]
time step continuity errors : sum local = 9.6036e-09, global = -2.16772e-21, cumulative = -4.49009e-21
[INFO] ContinuityError: 7.166 [ms]
[INFO] CorrectBoundary: 0.328 [ms]
[INFO] PISOStep: 9828.16 [ms]
[INFO] TimeStep: 20188.8 [ms]
ExecutionTime = 91.45 s  ClockTime = 92 s

Time = 0.0015

Courant Number mean: 0.0366383 max: 0.475557
[INFO] MatrixAssemblyU: 60.526 [ms]
DILUPBiCGStab:  Solving for Ux, Initial residual = 0.020431, Final residual = 0.000644718, No Iterations 5
DILUPBiCGStab:  Solving for Uy, Initial residual = 0.0658606, Final residual = 0.00245075, No Iterations 5
DILUPBiCGStab:  Solving for Uz, Initial residual = 0.336753, Final residual = 0.008558, No Iterations 5
[INFO] MomentumPredictor: 485.614 [ms]
[INFO] MatrixAssemblyPI: 67.356 [ms]
[INFO] AdjustPhi: 4.436 [ms]
[INFO] ConstrainPressure: 0.004 [ms]
[INFO] MatrixAssemblyPII: 20.043 [ms]
nonePCG:  Solving for p, Initial residual = 0.683402, Final residual = 9.85998e-05, No Iterations 741
[INFO] SolveP: 4554.08 [ms]
time step continuity errors : sum local = 9.78771e-09, global = -2.00664e-21, cumulative = -6.49672e-21
[INFO] ContinuityError: 7.803 [ms]
[INFO] CorrectBoundary: 0.267 [ms]
[INFO] PISOStep: 4677.84 [ms]
[INFO] MatrixAssemblyPI: 65.024 [ms]
[INFO] AdjustPhi: 5.56 [ms]
[INFO] ConstrainPressure: 0.004 [ms]
[INFO] MatrixAssemblyPII: 19.655 [ms]
nonePCG:  Solving for p, Initial residual = 0.622975, Final residual = 9.98543e-05, No Iterations 738
[INFO] SolveP: 4565.05 [ms]
time step continuity errors : sum local = 9.55918e-09, global = -3.49678e-23, cumulative = -6.53169e-21
[INFO] ContinuityError: 7.996 [ms]
[INFO] CorrectBoundary: 0.236 [ms]
[INFO] PISOStep: 4688.05 [ms]
[INFO] TimeStep: 9920.52 [ms]
ExecutionTime = 101.32 s  ClockTime = 102 s

Time = 0.00175

Courant Number mean: 0.039554 max: 0.477501
[INFO] MatrixAssemblyU: 60.541 [ms]
DILUPBiCGStab:  Solving for Ux, Initial residual = 0.0174634, Final residual = 0.000514084, No Iterations 5
DILUPBiCGStab:  Solving for Uy, Initial residual = 0.0489675, Final residual = 0.00179468, No Iterations 5
DILUPBiCGStab:  Solving for Uz, Initial residual = 0.261137, Final residual = 0.00787249, No Iterations 5
[INFO] MomentumPredictor: 488.34 [ms]
[INFO] MatrixAssemblyPI: 67.322 [ms]
[INFO] AdjustPhi: 4.533 [ms]
[INFO] ConstrainPressure: 0.004 [ms]
[INFO] MatrixAssemblyPII: 20.151 [ms]
nonePCG:  Solving for p, Initial residual = 0.679326, Final residual = 9.99679e-05, No Iterations 1490
[INFO] SolveP: 9193.74 [ms]
time step continuity errors : sum local = 7.77983e-09, global = -2.15904e-21, cumulative = -8.69074e-21
[INFO] ContinuityError: 7.077 [ms]
[INFO] CorrectBoundary: 0.431 [ms]
[INFO] PISOStep: 9317.36 [ms]
[INFO] MatrixAssemblyPI: 65.466 [ms]
[INFO] AdjustPhi: 4.229 [ms]
[INFO] ConstrainPressure: 0.005 [ms]
[INFO] MatrixAssemblyPII: 19.722 [ms]
nonePCG:  Solving for p, Initial residual = 0.620065, Final residual = 9.99421e-05, No Iterations 1491
[INFO] SolveP: 9216.9 [ms]
time step continuity errors : sum local = 7.73723e-09, global = 1.07769e-22, cumulative = -8.58297e-21
[INFO] ContinuityError: 7.124 [ms]
[INFO] CorrectBoundary: 0.314 [ms]
[INFO] PISOStep: 9339.34 [ms]
[INFO] TimeStep: 19213.8 [ms]
ExecutionTime = 120.45 s  ClockTime = 121 s

Time = 0.002

Courant Number mean: 0.0420791 max: 0.479207
[INFO] MatrixAssemblyU: 60.81 [ms]
DILUPBiCGStab:  Solving for Ux, Initial residual = 0.014298, Final residual = 0.000394444, No Iterations 5
DILUPBiCGStab:  Solving for Uy, Initial residual = 0.0417548, Final residual = 0.00138525, No Iterations 5
DILUPBiCGStab:  Solving for Uz, Initial residual = 0.202057, Final residual = 0.00589025, No Iterations 5
[INFO] MomentumPredictor: 486.552 [ms]
[INFO] MatrixAssemblyPI: 67.642 [ms]
[INFO] AdjustPhi: 4.127 [ms]
[INFO] ConstrainPressure: 0.003 [ms]
[INFO] MatrixAssemblyPII: 20.17 [ms]
nonePCG:  Solving for p, Initial residual = 0.588219, Final residual = 9.73992e-05, No Iterations 741
[INFO] SolveP: 4557.37 [ms]
time step continuity errors : sum local = 8.04047e-09, global = -1.92014e-21, cumulative = -1.05031e-20
[INFO] ContinuityError: 7.167 [ms]
[INFO] CorrectBoundary: 0.861 [ms]
[INFO] PISOStep: 4681.48 [ms]
[INFO] MatrixAssemblyPI: 65.482 [ms]
[INFO] AdjustPhi: 3.967 [ms]
[INFO] ConstrainPressure: 0.003 [ms]
[INFO] MatrixAssemblyPII: 19.219 [ms]
nonePCG:  Solving for p, Initial residual = 0.531054, Final residual = 9.80166e-05, No Iterations 733
[INFO] SolveP: 4561.13 [ms]
time step continuity errors : sum local = 7.53702e-09, global = -1.98176e-21, cumulative = -1.24849e-20
[INFO] ContinuityError: 7.96 [ms]
[INFO] CorrectBoundary: 0.436 [ms]
[INFO] PISOStep: 4683.5 [ms]
[INFO] TimeStep: 9920.61 [ms]
ExecutionTime = 130.32 s  ClockTime = 131 s

Time = 0.00225

Courant Number mean: 0.0443648 max: 0.480354
[INFO] MatrixAssemblyU: 61.257 [ms]
DILUPBiCGStab:  Solving for Ux, Initial residual = 0.012592, Final residual = 0.00032606, No Iterations 5
DILUPBiCGStab:  Solving for Uy, Initial residual = 0.0336298, Final residual = 0.000983616, No Iterations 5
DILUPBiCGStab:  Solving for Uz, Initial residual = 0.166145, Final residual = 0.00587225, No Iterations 5
[INFO] MomentumPredictor: 486.784 [ms]
[INFO] MatrixAssemblyPI: 67.429 [ms]
[INFO] AdjustPhi: 4.186 [ms]
[INFO] ConstrainPressure: 0.004 [ms]
[INFO] MatrixAssemblyPII: 20.045 [ms]
nonePCG:  Solving for p, Initial residual = 0.575395, Final residual = 9.99332e-05, No Iterations 1504
[INFO] SolveP: 9247.02 [ms]
time step continuity errors : sum local = 6.4078e-09, global = -9.13831e-22, cumulative = -1.33987e-20
[INFO] ContinuityError: 7.069 [ms]
[INFO] CorrectBoundary: 0.479 [ms]
[INFO] PISOStep: 9370.27 [ms]
[INFO] MatrixAssemblyPI: 65.117 [ms]
[INFO] AdjustPhi: 4.283 [ms]
[INFO] ConstrainPressure: 0.004 [ms]
[INFO] MatrixAssemblyPII: 19.106 [ms]
nonePCG:  Solving for p, Initial residual = 0.514907, Final residual = 9.86214e-05, No Iterations 1502
[INFO] SolveP: 9289.94 [ms]
time step continuity errors : sum local = 6.32184e-09, global = -2.52059e-21, cumulative = -1.59193e-20
[INFO] ContinuityError: 7.305 [ms]
[INFO] CorrectBoundary: 0.299 [ms]
[INFO] PISOStep: 9411.44 [ms]
[INFO] TimeStep: 19338.2 [ms]
ExecutionTime = 149.56 s  ClockTime = 150 s

Time = 0.0025

Courant Number mean: 0.0464193 max: 0.481461
[INFO] MatrixAssemblyU: 59.986 [ms]
DILUPBiCGStab:  Solving for Ux, Initial residual = 0.0108289, Final residual = 0.000262254, No Iterations 5
DILUPBiCGStab:  Solving for Uy, Initial residual = 0.0295089, Final residual = 0.000804895, No Iterations 5
DILUPBiCGStab:  Solving for Uz, Initial residual = 0.133525, Final residual = 0.0045982, No Iterations 5
[INFO] MomentumPredictor: 486.274 [ms]
[INFO] MatrixAssemblyPI: 67.05 [ms]
[INFO] AdjustPhi: 4.609 [ms]
[INFO] ConstrainPressure: 0.004 [ms]
[INFO] MatrixAssemblyPII: 20.011 [ms]
nonePCG:  Solving for p, Initial residual = 0.498728, Final residual = 9.79886e-05, No Iterations 1501
[INFO] SolveP: 9242.73 [ms]
time step continuity errors : sum local = 6.09912e-09, global = -2.31569e-21, cumulative = -1.8235e-20
[INFO] ContinuityError: 7.436 [ms]
[INFO] CorrectBoundary: 0.336 [ms]
[INFO] PISOStep: 9367 [ms]
[INFO] MatrixAssemblyPI: 65.836 [ms]
[INFO] AdjustPhi: 4.644 [ms]
[INFO] ConstrainPressure: 0.004 [ms]
[INFO] MatrixAssemblyPII: 19.853 [ms]
nonePCG:  Solving for p, Initial residual = 0.446304, Final residual = 9.85014e-05, No Iterations 1498
[INFO] SolveP: 9235.92 [ms]
time step continuity errors : sum local = 6.10515e-09, global = -2.92665e-21, cumulative = -2.11616e-20
[INFO] ContinuityError: 7.89 [ms]
[INFO] CorrectBoundary: 0.259 [ms]
[INFO] PISOStep: 9359.41 [ms]
[INFO] TimeStep: 19280.6 [ms]
ExecutionTime = 168.75 s  ClockTime = 170 s

Time = 0.00275

Courant Number mean: 0.0483074 max: 0.482232
[INFO] MatrixAssemblyU: 60.796 [ms]
DILUPBiCGStab:  Solving for Ux, Initial residual = 0.00969799, Final residual = 0.00022043, No Iterations 5
DILUPBiCGStab:  Solving for Uy, Initial residual = 0.0249739, Final residual = 0.000584691, No Iterations 5
DILUPBiCGStab:  Solving for Uz, Initial residual = 0.110983, Final residual = 0.00430596, No Iterations 5
[INFO] MomentumPredictor: 487.224 [ms]
[INFO] MatrixAssemblyPI: 67.332 [ms]
[INFO] AdjustPhi: 4.458 [ms]
[INFO] ConstrainPressure: 0.004 [ms]
[INFO] MatrixAssemblyPII: 19.967 [ms]
nonePCG:  Solving for p, Initial residual = 0.474476, Final residual = 9.88521e-05, No Iterations 1495
[INFO] SolveP: 9230.46 [ms]
time step continuity errors : sum local = 5.55845e-09, global = -8.6917e-22, cumulative = -2.20308e-20
[INFO] ContinuityError: 7.254 [ms]
[INFO] CorrectBoundary: 0.466 [ms]
[INFO] PISOStep: 9353.94 [ms]
[INFO] MatrixAssemblyPI: 65.519 [ms]
[INFO] AdjustPhi: 4.075 [ms]
[INFO] ConstrainPressure: 0.004 [ms]
[INFO] MatrixAssemblyPII: 19.82 [ms]
nonePCG:  Solving for p, Initial residual = 0.420525, Final residual = 9.91937e-05, No Iterations 1493
[INFO] SolveP: 9204.14 [ms]
time step continuity errors : sum local = 5.58358e-09, global = -2.88943e-21, cumulative = -2.49202e-20
[INFO] ContinuityError: 7.394 [ms]
[INFO] CorrectBoundary: 0.387 [ms]
[INFO] PISOStep: 9325.77 [ms]
[INFO] TimeStep: 19236.3 [ms]
ExecutionTime = 187.89 s  ClockTime = 189 s

Time = 0.003

Courant Number mean: 0.0500404 max: 0.483022
[INFO] MatrixAssemblyU: 60.118 [ms]
DILUPBiCGStab:  Solving for Ux, Initial residual = 0.00860777, Final residual = 0.000183888, No Iterations 5
DILUPBiCGStab:  Solving for Uy, Initial residual = 0.022307, Final residual = 0.000482885, No Iterations 5
DILUPBiCGStab:  Solving for Uz, Initial residual = 0.0929547, Final residual = 0.00366682, No Iterations 5
[INFO] MomentumPredictor: 485.253 [ms]
[INFO] MatrixAssemblyPI: 67.583 [ms]
[INFO] AdjustPhi: 4.182 [ms]
[INFO] ConstrainPressure: 0.004 [ms]
[INFO] MatrixAssemblyPII: 20.087 [ms]
nonePCG:  Solving for p, Initial residual = 0.417226, Final residual = 9.91172e-05, No Iterations 734
[INFO] SolveP: 4527.21 [ms]
time step continuity errors : sum local = 6.07765e-09, global = -4.73147e-22, cumulative = -2.53934e-20
[INFO] ContinuityError: 6.972 [ms]
[INFO] CorrectBoundary: 0.35 [ms]
[INFO] PISOStep: 4651.09 [ms]
[INFO] MatrixAssemblyPI: 65.74 [ms]
[INFO] AdjustPhi: 4.806 [ms]
[INFO] ConstrainPressure: 0.004 [ms]
[INFO] MatrixAssemblyPII: 19.886 [ms]
nonePCG:  Solving for p, Initial residual = 0.370871, Final residual = 9.85736e-05, No Iterations 704
[INFO] SolveP: 4348.77 [ms]
time step continuity errors : sum local = 5.59347e-09, global = -2.29214e-21, cumulative = -2.76855e-20
[INFO] ContinuityError: 7.063 [ms]
[INFO] CorrectBoundary: 0.837 [ms]
[INFO] PISOStep: 4472.02 [ms]
[INFO] TimeStep: 9676.33 [ms]
ExecutionTime = 197.53 s  ClockTime = 199 s

Time = 0.00325

Courant Number mean: 0.0516504 max: 0.483587
[INFO] MatrixAssemblyU: 59.265 [ms]
DILUPBiCGStab:  Solving for Ux, Initial residual = 0.0078225, Final residual = 0.000157221, No Iterations 5
DILUPBiCGStab:  Solving for Uy, Initial residual = 0.0195138, Final residual = 0.00037367, No Iterations 5
DILUPBiCGStab:  Solving for Uz, Initial residual = 0.0809745, Final residual = 0.00355735, No Iterations 5
[INFO] MomentumPredictor: 485.697 [ms]
[INFO] MatrixAssemblyPI: 67.375 [ms]
[INFO] AdjustPhi: 4.226 [ms]
[INFO] ConstrainPressure: 0.004 [ms]
[INFO] MatrixAssemblyPII: 20.123 [ms]
nonePCG:  Solving for p, Initial residual = 0.386677, Final residual = 9.97074e-05, No Iterations 1490
[INFO] SolveP: 9196.01 [ms]
time step continuity errors : sum local = 5.09062e-09, global = -1.35521e-21, cumulative = -2.90407e-20
[INFO] ContinuityError: 7.653 [ms]
[INFO] CorrectBoundary: 0.227 [ms]
[INFO] PISOStep: 9319.7 [ms]
[INFO] MatrixAssemblyPI: 66.382 [ms]
[INFO] AdjustPhi: 4.607 [ms]
[INFO] ConstrainPressure: 0.004 [ms]
[INFO] MatrixAssemblyPII: 20.033 [ms]
nonePCG:  Solving for p, Initial residual = 0.340639, Final residual = 9.77845e-05, No Iterations 1489
[INFO] SolveP: 9219.02 [ms]
time step continuity errors : sum local = 4.99944e-09, global = -3.36809e-21, cumulative = -3.24088e-20
[INFO] ContinuityError: 6.879 [ms]
[INFO] CorrectBoundary: 0.347 [ms]
[INFO] PISOStep: 9341.92 [ms]
[INFO] TimeStep: 19214.6 [ms]
ExecutionTime = 216.65 s  ClockTime = 218 s

Time = 0.0035

Courant Number mean: 0.0531456 max: 0.484182
[INFO] MatrixAssemblyU: 59.754 [ms]
DILUPBiCGStab:  Solving for Ux, Initial residual = 0.007082, Final residual = 0.000134866, No Iterations 5
DILUPBiCGStab:  Solving for Uy, Initial residual = 0.0177247, Final residual = 0.000308572, No Iterations 5
DILUPBiCGStab:  Solving for Uz, Initial residual = 0.0691866, Final residual = 0.00296257, No Iterations 5
[INFO] MomentumPredictor: 486.751 [ms]
[INFO] MatrixAssemblyPI: 67.515 [ms]
[INFO] AdjustPhi: 4.596 [ms]
[INFO] ConstrainPressure: 0.003 [ms]
[INFO] MatrixAssemblyPII: 20.037 [ms]
nonePCG:  Solving for p, Initial residual = 0.344768, Final residual = 9.92462e-05, No Iterations 1487
[INFO] SolveP: 9169.8 [ms]
time step continuity errors : sum local = 4.90326e-09, global = -1.69868e-21, cumulative = -3.41075e-20
[INFO] ContinuityError: 7.258 [ms]
[INFO] CorrectBoundary: 0.291 [ms]
[INFO] PISOStep: 9294.38 [ms]
[INFO] MatrixAssemblyPI: 65.838 [ms]
[INFO] AdjustPhi: 4.615 [ms]
[INFO] ConstrainPressure: 0.004 [ms]
[INFO] MatrixAssemblyPII: 19.866 [ms]
nonePCG:  Solving for p, Initial residual = 0.305315, Final residual = 9.64452e-05, No Iterations 1486
[INFO] SolveP: 9143.29 [ms]
time step continuity errors : sum local = 4.74651e-09, global = -3.42148e-21, cumulative = -3.7529e-20
[INFO] ContinuityError: 7.06 [ms]
[INFO] CorrectBoundary: 0.532 [ms]
[INFO] PISOStep: 9265.49 [ms]
[INFO] TimeStep: 19114.2 [ms]
ExecutionTime = 235.66 s  ClockTime = 237 s

Time = 0.00375

Courant Number mean: 0.0545472 max: 0.484621
[INFO] MatrixAssemblyU: 59.336 [ms]
DILUPBiCGStab:  Solving for Ux, Initial residual = 0.00649196, Final residual = 0.000116859, No Iterations 5
DILUPBiCGStab:  Solving for Uy, Initial residual = 0.0158742, Final residual = 0.000257647, No Iterations 5
DILUPBiCGStab:  Solving for Uz, Initial residual = 0.0595225, Final residual = 0.0027107, No Iterations 5
[INFO] MomentumPredictor: 487.407 [ms]
[INFO] MatrixAssemblyPI: 67.453 [ms]
[INFO] AdjustPhi: 4.294 [ms]
[INFO] ConstrainPressure: 0.004 [ms]
[INFO] MatrixAssemblyPII: 20.053 [ms]
nonePCG:  Solving for p, Initial residual = 0.312573, Final residual = 9.81046e-05, No Iterations 1484
[INFO] SolveP: 9163.38 [ms]
time step continuity errors : sum local = 4.65126e-09, global = -1.89011e-21, cumulative = -3.94191e-20
[INFO] ContinuityError: 7.661 [ms]
[INFO] CorrectBoundary: 0.321 [ms]
[INFO] PISOStep: 9287.32 [ms]
[INFO] MatrixAssemblyPI: 66.232 [ms]
[INFO] AdjustPhi: 4.586 [ms]
[INFO] ConstrainPressure: 0.004 [ms]
[INFO] MatrixAssemblyPII: 19.987 [ms]
nonePCG:  Solving for p, Initial residual = 0.274719, Final residual = 9.88728e-05, No Iterations 1482
[INFO] SolveP: 9155.34 [ms]
time step continuity errors : sum local = 4.69314e-09, global = -2.50409e-21, cumulative = -4.19232e-20
[INFO] ContinuityError: 6.934 [ms]
[INFO] CorrectBoundary: 0.394 [ms]
[INFO] PISOStep: 9278.03 [ms]
[INFO] TimeStep: 19120 [ms]
ExecutionTime = 254.7 s  ClockTime = 256 s

Time = 0.004

Courant Number mean: 0.0558603 max: 0.485084
[INFO] MatrixAssemblyU: 59.826 [ms]
DILUPBiCGStab:  Solving for Ux, Initial residual = 0.00596866, Final residual = 0.000102599, No Iterations 5
DILUPBiCGStab:  Solving for Uy, Initial residual = 0.0145648, Final residual = 0.000216401, No Iterations 5
DILUPBiCGStab:  Solving for Uz, Initial residual = 0.0523687, Final residual = 0.00236827, No Iterations 5
[INFO] MomentumPredictor: 487.017 [ms]
[INFO] MatrixAssemblyPI: 67.239 [ms]
[INFO] AdjustPhi: 4.363 [ms]
[INFO] ConstrainPressure: 0.004 [ms]
[INFO] MatrixAssemblyPII: 20.056 [ms]
nonePCG:  Solving for p, Initial residual = 0.281879, Final residual = 9.65824e-05, No Iterations 1481
[INFO] SolveP: 9148.81 [ms]
time step continuity errors : sum local = 4.41299e-09, global = -4.02532e-21, cumulative = -4.59485e-20
[INFO] ContinuityError: 7.159 [ms]
[INFO] CorrectBoundary: 0.31 [ms]
[INFO] PISOStep: 9272.72 [ms]
[INFO] MatrixAssemblyPI: 65.754 [ms]
[INFO] AdjustPhi: 4.987 [ms]
[INFO] ConstrainPressure: 0.005 [ms]
[INFO] MatrixAssemblyPII: 19.909 [ms]
nonePCG:  Solving for p, Initial residual = 0.248879, Final residual = 9.98162e-05, No Iterations 743
[INFO] SolveP: 4581.38 [ms]
time step continuity errors : sum local = 5.09998e-09, global = -9.44072e-22, cumulative = -4.68926e-20
[INFO] ContinuityError: 7.541 [ms]
[INFO] CorrectBoundary: 0.82 [ms]
[INFO] PISOStep: 4704.51 [ms]
[INFO] TimeStep: 14531.9 [ms]
ExecutionTime = 269.16 s  ClockTime = 271 s

Time = 0.00425

Courant Number mean: 0.0570984 max: 0.485441
[INFO] MatrixAssemblyU: 58.591 [ms]
DILUPBiCGStab:  Solving for Ux, Initial residual = 0.00553383, Final residual = 9.01246e-05, No Iterations 5
DILUPBiCGStab:  Solving for Uy, Initial residual = 0.013254, Final residual = 0.000193346, No Iterations 5
DILUPBiCGStab:  Solving for Uz, Initial residual = 0.0475346, Final residual = 0.00224171, No Iterations 5
[INFO] MomentumPredictor: 488.238 [ms]
[INFO] MatrixAssemblyPI: 67.042 [ms]
[INFO] AdjustPhi: 4.657 [ms]
[INFO] ConstrainPressure: 0.004 [ms]
[INFO] MatrixAssemblyPII: 20.088 [ms]
nonePCG:  Solving for p, Initial residual = 0.251824, Final residual = 9.95731e-05, No Iterations 1479
[INFO] SolveP: 9113.74 [ms]
time step continuity errors : sum local = 4.44926e-09, global = -1.97775e-21, cumulative = -4.88703e-20
[INFO] ContinuityError: 7.951 [ms]
[INFO] CorrectBoundary: 0.301 [ms]
[INFO] PISOStep: 9238.13 [ms]
[INFO] MatrixAssemblyPI: 66.104 [ms]
[INFO] AdjustPhi: 5.136 [ms]
[INFO] ConstrainPressure: 0.004 [ms]
[INFO] MatrixAssemblyPII: 20.052 [ms]
nonePCG:  Solving for p, Initial residual = 0.220789, Final residual = 9.85636e-05, No Iterations 1477
[INFO] SolveP: 9128.34 [ms]
time step continuity errors : sum local = 4.40833e-09, global = -3.25114e-22, cumulative = -4.91954e-20
[INFO] ContinuityError: 6.94 [ms]
[INFO] CorrectBoundary: 0.892 [ms]
[INFO] PISOStep: 9251.93 [ms]
[INFO] TimeStep: 19045 [ms]
ExecutionTime = 288.11 s  ClockTime = 290 s

Time = 0.0045

Courant Number mean: 0.058267 max: 0.485814
[INFO] MatrixAssemblyU: 59.169 [ms]
DILUPBiCGStab:  Solving for Ux, Initial residual = 0.00513453, Final residual = 8.04629e-05, No Iterations 5
DILUPBiCGStab:  Solving for Uy, Initial residual = 0.0123236, Final residual = 0.000166997, No Iterations 5
DILUPBiCGStab:  Solving for Uz, Initial residual = 0.0422288, Final residual = 0.00187616, No Iterations 5
[INFO] MomentumPredictor: 487.749 [ms]
[INFO] MatrixAssemblyPI: 67.419 [ms]
[INFO] AdjustPhi: 4.227 [ms]
[INFO] ConstrainPressure: 0.004 [ms]
[INFO] MatrixAssemblyPII: 20.05 [ms]
nonePCG:  Solving for p, Initial residual = 0.22869, Final residual = 9.88263e-05, No Iterations 1476
[INFO] SolveP: 9094.86 [ms]
time step continuity errors : sum local = 4.25557e-09, global = -4.92288e-21, cumulative = -5.41183e-20
[INFO] ContinuityError: 7.512 [ms]
[INFO] CorrectBoundary: 0.267 [ms]
[INFO] PISOStep: 9219.39 [ms]
[INFO] MatrixAssemblyPI: 65.543 [ms]
[INFO] AdjustPhi: 4.556 [ms]
[INFO] ConstrainPressure: 0.004 [ms]
[INFO] MatrixAssemblyPII: 19.944 [ms]
nonePCG:  Solving for p, Initial residual = 0.201303, Final residual = 9.54396e-05, No Iterations 1475
[INFO] SolveP: 9094.02 [ms]
time step continuity errors : sum local = 4.10046e-09, global = -2.28532e-21, cumulative = -5.64036e-20
[INFO] ContinuityError: 7.332 [ms]
[INFO] CorrectBoundary: 0.847 [ms]
[INFO] PISOStep: 9216.96 [ms]
[INFO] TimeStep: 18991.6 [ms]
ExecutionTime = 307.01 s  ClockTime = 309 s

Time = 0.00475

Courant Number mean: 0.0593738 max: 0.48611
[INFO] MatrixAssemblyU: 59.33 [ms]
DILUPBiCGStab:  Solving for Ux, Initial residual = 0.00477899, Final residual = 7.13147e-05, No Iterations 5
DILUPBiCGStab:  Solving for Uy, Initial residual = 0.0113501, Final residual = 0.000154185, No Iterations 5
DILUPBiCGStab:  Solving for Uz, Initial residual = 0.0371683, Final residual = 0.00166072, No Iterations 5
[INFO] MomentumPredictor: 485.787 [ms]
[INFO] MatrixAssemblyPI: 67.175 [ms]
[INFO] AdjustPhi: 4.653 [ms]
[INFO] ConstrainPressure: 0.004 [ms]
[INFO] MatrixAssemblyPII: 20.074 [ms]
nonePCG:  Solving for p, Initial residual = 0.202675, Final residual = 9.83234e-05, No Iterations 1473
[INFO] SolveP: 9086.98 [ms]
time step continuity errors : sum local = 4.19059e-09, global = -2.91013e-21, cumulative = -5.93138e-20
[INFO] ContinuityError: 7.805 [ms]
[INFO] CorrectBoundary: 0.277 [ms]
[INFO] PISOStep: 9211.15 [ms]
[INFO] MatrixAssemblyPI: 66.561 [ms]
[INFO] AdjustPhi: 4.384 [ms]
[INFO] ConstrainPressure: 0.004 [ms]
[INFO] MatrixAssemblyPII: 20.077 [ms]
nonePCG:  Solving for p, Initial residual = 0.177371, Final residual = 9.93094e-05, No Iterations 1471
[INFO] SolveP: 9089.07 [ms]
time step continuity errors : sum local = 4.23476e-09, global = -7.11513e-23, cumulative = -5.93849e-20
[INFO] ContinuityError: 6.909 [ms]
[INFO] CorrectBoundary: 0.389 [ms]
[INFO] PISOStep: 9212.03 [ms]
[INFO] TimeStep: 18976.4 [ms]
ExecutionTime = 325.89 s  ClockTime = 328 s

Time = 0.005

Courant Number mean: 0.0604236 max: 0.486416
[INFO] MatrixAssemblyU: 59.913 [ms]
DILUPBiCGStab:  Solving for Ux, Initial residual = 0.00447618, Final residual = 6.45322e-05, No Iterations 5
DILUPBiCGStab:  Solving for Uy, Initial residual = 0.0106009, Final residual = 0.000135989, No Iterations 5
DILUPBiCGStab:  Solving for Uz, Initial residual = 0.0334251, Final residual = 0.00143189, No Iterations 5
[INFO] MomentumPredictor: 486.042 [ms]
[INFO] MatrixAssemblyPI: 67.466 [ms]
[INFO] AdjustPhi: 4.19 [ms]
[INFO] ConstrainPressure: 0.003 [ms]
[INFO] MatrixAssemblyPII: 20.045 [ms]
nonePCG:  Solving for p, Initial residual = 0.184131, Final residual = 9.84949e-05, No Iterations 1469
[INFO] SolveP: 9044.33 [ms]
time step continuity errors : sum local = 4.05524e-09, global = -6.11556e-21, cumulative = -6.55005e-20
[INFO] ContinuityError: 7.192 [ms]
[INFO] CorrectBoundary: 0.311 [ms]
[INFO] PISOStep: 9168.39 [ms]
[INFO] MatrixAssemblyPI: 65.708 [ms]
[INFO] AdjustPhi: 5.242 [ms]
[INFO] ConstrainPressure: 0.004 [ms]
[INFO] MatrixAssemblyPII: 19.882 [ms]
nonePCG:  Solving for p, Initial residual = 0.161727, Final residual = 9.96097e-05, No Iterations 1467
[INFO] SolveP: 9027.73 [ms]
time step continuity errors : sum local = 4.09446e-09, global = -4.55591e-21, cumulative = -7.00564e-20
[INFO] ContinuityError: 7.516 [ms]
[INFO] CorrectBoundary: 0.554 [ms]
[INFO] PISOStep: 9151.02 [ms]
[INFO] TimeStep: 18873.3 [ms]
ExecutionTime = 344.68 s  ClockTime = 346 s

End

Finalising parallel run
