/*---------------------------------------------------------------------------*\
| =========                 |                                                 |
| \\      /  F ield         | OpenFOAM: The Open Source CFD Toolbox           |
|  \\    /   O peration     | Version:  2306                                  |
|   \\  /    A nd           | Website:  www.openfoam.com                      |
|    \\/     M anipulation  |                                                 |
\*---------------------------------------------------------------------------*/
Build  : c423ebec-20231012 OPENFOAM=2306 version=v2306
Arch   : "LSB;label=32;scalar=64"
Exec   : simpleFoam -parallel -case /hkfs/work/workspace/scratch/eq4036-windsorbody_setup/workspace/22857330bb7e5e04a4beb33a97fc06cb/case
Date   : Feb 16 2024
Time   : 14:53:11
Host   : hkn0408.localdomain
PID    : 355438
I/O    : uncollated
Case   : /hkfs/work/workspace/scratch/eq4036-windsorbody_setup/workspace/22857330bb7e5e04a4beb33a97fc06cb/case
nProcs : 4
Hosts  :
(
    (hkn0408.localdomain 4)
)
Pstream initialized with:
    floatTransfer      : false
    nProcsSimpleSum    : 0
    nonBlockingExchange: 0 (tuning: 0)
    exchange algorithm : -1
    commsType          : nonBlocking
    polling iterations : 0
trapFpe: Floating point exception trapping enabled (FOAM_SIGFPE).
fileModificationChecking : Monitoring run-time modified files using timeStampMaster (fileModificationSkew 5, maxFileModificationPolls 20)
allowSystemOperations : Allowing user-supplied system call operations

// * * * * * * * * * * * * * * * * * * * * * * * * * * * * * * * * * * * * * //
Create time

--> FOAM Warning : 
    From void* Foam::dlLibraryTable::openLibrary(const Foam::fileName&, bool)
    in file db/dynamicLibrary/dlLibraryTable/dlLibraryTable.C at line 188
    Could not load "libpetscFoam.so"
libpetscFoam.so: cannot open shared object file: No such file or directory
Create mesh for time = 0


SIMPLE: convergence criteria
    field p	 tolerance 1e-08
    field U	 tolerance 1e-08
    field k	 tolerance 1e-08
    field omega	 tolerance 1e-08
    field nuTilda	 tolerance 1e-08

Reading field p

Reading field U

Reading/calculating face flux field phi

Selecting incompressible transport model Newtonian
Selecting turbulence model type RAS
Selecting RAS turbulence model SpalartAllmaras
Selecting patchDistMethod meshWave
ft2 term: inactive
RAS
{
    RASModel        SpalartAllmaras;
    turbulence      on;
    printCoeffs     on;
    sigmaNut        0.66666;
    kappa           0.41;
    Cb1             0.1355;
    Cb2             0.622;
    Cw2             0.3;
    Cw3             2;
    Cv1             7.1;
    Cs              0.3;
    ck              0.07000000000000001;
    ft2             false;
    Ct3             1.2;
    Ct4             0.5;
}

No MRF models present

Creating finite volume options from "system/fvOptions"

Selecting finite volume options type velocityDampingConstraint
    Source: velocityDamping
    - selecting all cells
    - selected 25228544 cell(s) with volume 111.3033220647997

Starting time loop

--> FOAM Warning : 
    From bool Foam::functionObjectList::read()
    in file db/functionObjects/functionObjectList/functionObjectList.C at line 1035
    Reading "system/controlDict" at line 2 to 41
    Entry 'lref' is not a dictionary
--> FOAM Warning : 
    From bool Foam::functionObjectList::read()
    in file db/functionObjects/functionObjectList/functionObjectList.C at line 1035
    Reading "system/controlDict" at line 2 to 41
    Entry 'Aref' is not a dictionary
--> FOAM Warning : 
    From bool Foam::functionObjectList::read()
    in file db/functionObjects/functionObjectList/functionObjectList.C at line 1035
    Reading "system/controlDict" at line 2 to 41
    Entry 'yawAngle' is not a dictionary
--> FOAM Warning : 
    From bool Foam::functionObjectList::read()
    in file db/functionObjects/functionObjectList/functionObjectList.C at line 1035
    Reading "system/controlDict" at line 2 to 41
    Entry 'lDomain' is not a dictionary
--> FOAM Warning : 
    From bool Foam::functionObjectList::read()
    in file db/functionObjects/functionObjectList/functionObjectList.C at line 1035
    Reading "system/controlDict" at line 2 to 41
    Entry 'bDomain' is not a dictionary
--> FOAM Warning : 
    From bool Foam::functionObjectList::read()
    in file db/functionObjects/functionObjectList/functionObjectList.C at line 1035
    Reading "system/controlDict" at line 2 to 41
    Entry 'hDomain' is not a dictionary
--> FOAM Warning : 
    From bool Foam::functionObjectList::read()
    in file db/functionObjects/functionObjectList/functionObjectList.C at line 1035
    Reading "system/controlDict" at line 2 to 41
    Entry 'xCenter' is not a dictionary
--> FOAM Warning : 
    From bool Foam::functionObjectList::read()
    in file db/functionObjects/functionObjectList/functionObjectList.C at line 1035
    Reading "system/controlDict" at line 2 to 41
    Entry 'yCenter' is not a dictionary
--> FOAM Warning : 
    From bool Foam::functionObjectList::read()
    in file db/functionObjects/functionObjectList/functionObjectList.C at line 1035
    Reading "system/controlDict" at line 2 to 41
    Entry 'zCenter' is not a dictionary
--> FOAM Warning : 
    From bool Foam::functionObjectList::read()
    in file db/functionObjects/functionObjectList/functionObjectList.C at line 1035
    Reading "system/controlDict" at line 2 to 41
    Entry 'inletPatch' is not a dictionary
--> FOAM Warning : 
    From bool Foam::functionObjectList::read()
    in file db/functionObjects/functionObjectList/functionObjectList.C at line 1035
    Reading "system/controlDict" at line 2 to 41
    Entry 'outletPatch' is not a dictionary
--> FOAM Warning : 
    From bool Foam::functionObjectList::read()
    in file db/functionObjects/functionObjectList/functionObjectList.C at line 1035
    Reading "system/controlDict" at line 2 to 41
    Entry 'wallPatches' is not a dictionary
--> FOAM Warning : 
    From bool Foam::functionObjectList::read()
    in file db/functionObjects/functionObjectList/functionObjectList.C at line 1035
    Reading "system/controlDict" at line 2 to 41
    Entry 'forcesWallPatches' is not a dictionary
--> FOAM Warning : 
    From bool Foam::functionObjectList::read()
    in file db/functionObjects/functionObjectList/functionObjectList.C at line 1035
    Reading "system/controlDict" at line 2 to 41
    Entry 'symmPatches' is not a dictionary
--> FOAM Warning : 
    From bool Foam::functionObjectList::read()
    in file db/functionObjects/functionObjectList/functionObjectList.C at line 1035
    Reading "system/controlDict" at line 2 to 41
    Entry 'Uinf' is not a dictionary
--> FOAM Warning : 
    From bool Foam::functionObjectList::read()
    in file db/functionObjects/functionObjectList/functionObjectList.C at line 1035
    Reading "system/controlDict" at line 2 to 41
    Entry 'UinfMag' is not a dictionary
--> FOAM Warning : 
    From bool Foam::functionObjectList::read()
    in file db/functionObjects/functionObjectList/functionObjectList.C at line 1035
    Reading "system/controlDict" at line 2 to 41
    Entry 'nu' is not a dictionary
--> FOAM Warning : 
    From bool Foam::functionObjectList::read()
    in file db/functionObjects/functionObjectList/functionObjectList.C at line 1035
    Reading "system/controlDict" at line 2 to 41
    Entry 'pref' is not a dictionary
--> FOAM Warning : 
    From bool Foam::functionObjectList::read()
    in file db/functionObjects/functionObjectList/functionObjectList.C at line 1035
    Reading "system/controlDict" at line 2 to 41
    Entry 'viscRatio' is not a dictionary
--> FOAM Warning : 
    From bool Foam::functionObjectList::read()
    in file db/functionObjects/functionObjectList/functionObjectList.C at line 1035
    Reading "system/controlDict" at line 2 to 41
    Entry 'Tu' is not a dictionary
--> FOAM Warning : 
    From bool Foam::functionObjectList::read()
    in file db/functionObjects/functionObjectList/functionObjectList.C at line 1035
    Reading "system/controlDict" at line 2 to 41
    Entry 'LESturbModel' is not a dictionary
--> FOAM Warning : 
    From bool Foam::functionObjectList::read()
    in file db/functionObjects/functionObjectList/functionObjectList.C at line 1035
    Reading "system/controlDict" at line 2 to 41
    Entry 'RASturbModel' is not a dictionary
--> FOAM Warning : 
    From bool Foam::functionObjectList::read()
    in file db/functionObjects/functionObjectList/functionObjectList.C at line 1035
    Reading "system/controlDict" at line 2 to 41
    Entry 'deltaTurb' is not a dictionary
--> FOAM Warning : 
    From bool Foam::functionObjectList::read()
    in file db/functionObjects/functionObjectList/functionObjectList.C at line 1035
    Reading "system/controlDict" at line 2 to 41
    Entry 'dt' is not a dictionary
--> FOAM Warning : 
    From bool Foam::functionObjectList::read()
    in file db/functionObjects/functionObjectList/functionObjectList.C at line 1035
    Reading "system/controlDict" at line 2 to 41
    Entry 'tAvg' is not a dictionary
--> FOAM Warning : 
    From bool Foam::functionObjectList::read()
    in file db/functionObjects/functionObjectList/functionObjectList.C at line 1035
    Reading "system/controlDict" at line 2 to 41
    Entry 'tEnd' is not a dictionary
--> FOAM Warning : 
    From bool Foam::functionObjectList::read()
    in file db/functionObjects/functionObjectList/functionObjectList.C at line 1035
    Reading "system/controlDict" at line 2 to 41
    Entry 'writeInterval_' is not a dictionary
--> FOAM Warning : 
    From bool Foam::functionObjectList::read()
    in file db/functionObjects/functionObjectList/functionObjectList.C at line 1035
    Reading "system/controlDict" at line 2 to 41
    Entry 'nCores' is not a dictionary
--> FOAM Warning : 
    From bool Foam::functionObjectList::read()
    in file db/functionObjects/functionObjectList/functionObjectList.C at line 1035
    Reading "system/controlDict" at line 2 to 41
    Entry 'interpScheme' is not a dictionary
--> FOAM Warning : 
    From bool Foam::functionObjectList::read()
    in file db/functionObjects/functionObjectList/functionObjectList.C at line 1035
    Reading "system/controlDict" at line 2 to 41
    Entry 'probeField' is not a dictionary
wallShearStress wallShearStress:
    processing wall patches: 
        Windsor_Body
        CFDWT_Floor
        Windsor_Pins
        Windsor_Base
        Windsor_Body_2
        CFDWT_Floor_2
        Windsor_Pins_2
        Windsor_Base_2
        Windsor_Body_3
        CFDWT_Floor_3
        Windsor_Pins_3
        Windsor_Base_3
        Windsor_Body_4
        CFDWT_Floor_4
        Windsor_Pins_4
        Windsor_Base_4

pressure calc_cp:
    Operating mode: staticCoeff
    Not including hydrostatic effects

forceCoeffs forceCoeffsAll:
    rho: rhoInf
    Freestream density (rhoInf) set to 1
    Not including porosity effects
    magUInf: 40
    lRef   : 0.6375
    Aref   : 0.1124
    rhoInf : 1
    Selecting all coefficients
    - Drag force: Cd
    - Drag force front: Cd(f)
    - Drag force rear: Cd(r)
    - Lift force: Cl
    - Lift force front: Cl(f)
    - Lift force rear: Cl(r)
    - Pitch moment: CmPitch
    - Roll moment: CmRoll
    - Yaw moment: CmYaw
    - Side force: Cs
    - Side force front: Cs(f)
    - Side force rear: Cs(r)


forceCoeffs dragCoeffBase:
    rho: rhoInf
    Freestream density (rhoInf) set to 1
    Not including porosity effects
    magUInf: 40
    lRef   : 0.6375
    Aref   : 0.1124
    rhoInf : 1
    Selecting coefficients:
    - Drag force: Cd


Time = 1

velocityDampingConstraint velocityDamping damped 0 (0%) of cells, with max limit 300
smoothSolver:  Solving for Ux, Initial residual = 0.9999999999996497, Final residual = 0.08495806904865345, No Iterations 3
smoothSolver:  Solving for Uy, Initial residual = 1, Final residual = 0.06547110637433885, No Iterations 6
smoothSolver:  Solving for Uz, Initial residual = 1, Final residual = 0.01751034399753749, No Iterations 2
[OGL LOG][lduLduBase.H:119] Initialising OGL
	OGL commit:  e75313f+
	Branch: dev 
	Build type: Debug
	Ginkgo version: 1.8.0 ( develop)
	Ginkgo commit: sparse-communicator
	MPI is GPU aware: 1
	Forces host buffer based communication: 0
	CPU ranks per GPU: 1
	Matrix format: Coo
	End OGL_INFO
[OGL LOG][Proc: 0]: global_index_init: 0.065 [ms]
[OGL LOG][Proc: 0]p_local_cols: call_init: 1.264 [ms]
[OGL LOG][Proc: 0]p_local_rows: call_init: 0.381 [ms]
[OGL LOG][Proc: 0]p_local_ldu_map: call_init: 0.274 [ms]
[OGL LOG][Proc: 0]p_local_coeffs: call_init: 5.679 [ms]
[OGL LOG][Proc: 0]p_non_local_cols: call_init: 0.017 [ms]
[OGL LOG][Proc: 0]p_non_local_rows: call_init: 0.005 [ms]
[OGL LOG][Proc: 0]p_non_local_ldu_map: call_init: 0.004 [ms]
[OGL LOG][Proc: 0]p_non_local_coeffs: call_init: 0.01 [ms]
[OGL LOG][Proc: 0]p: init_local_sparsity_pattern: 248396.029 [ms]
[OGL LOG][Proc: 0]p: init_non_local_sparsity_pattern: 30763.044 [ms]
[OGL LOG][Proc: 0]p: update_local_matrix_data: 265.541 [ms]
[OGL LOG][Proc: 0]p: update_non_local_matrix_data: 0.986 [ms]
[OGL LOG][Proc: 0]device_partition: call_init: 0.212 [ms]
[OGL LOG][Proc: 0]p_matrix: call_init: 520.9640000000001 [ms]
[OGL LOG][Proc: 0]p_rhs: call_init: 15.194 [ms]
[OGL LOG][Proc: 0]p_solution: call_init: 15.851 [ms]
[OGL LOG][Preconditioner.H:346] Generate preconditioner Multigrid MaxLevels 9 MinCoarseRows 10 ZeroGuess 1 Cycle v
[OGL LOG][Proc: 0]p: init_precond: 1177.383 [ms]
[OGL LOG][StoppingCriterion.H:239] Creating stopping criterion with minIter 0 frequency 1
[OGL LOG][Proc: 0]p: generate_solver: 0.035 [ms]
[OGL LOG][Proc: 0]p: solve: 1882.563 [ms]
[OGL LOG][Proc: 0]p: copy_x_back: 25.049 [ms]
[OGL LOG][lduLduBase.H:330] 
Statistics:
	Time per iteration: 18101 [mu s]
	Time per residual norm calculation: 179.000000 [mu s]
	Time per iteration and DOF: 0.717481 [ns]
	Retrieve results bandwidth 2.016000 [GByte/s]
[OGL LOG][Proc: 0]p: solve_multi_gpu: 3691.397 [ms]
MultigridcudaGKOCG:  Solving for p, Initial residual = 1.000000000002135, Final residual = 0.009092219992797626, No Iterations 104
time step continuity errors : sum local = 0.003304171998388889, global = 4.928464060845191e-05, cumulative = 4.928464060845191e-05
smoothSolver:  Solving for nuTilda, Initial residual = 0.9999999908826113, Final residual = 0.05232981667318932, No Iterations 3
ExecutionTime = 354.63 s  ClockTime = 356 s

--> FOAM Warning : 
    From virtual bool Foam::functionObjects::fieldSelection::checkSelection()
    in file functionObjects/fieldSelections/fieldSelection/fieldSelection.C at line 166
    Field k not found
--> FOAM Warning : 
    From virtual bool Foam::functionObjects::fieldSelection::checkSelection()
    in file functionObjects/fieldSelections/fieldSelection/fieldSelection.C at line 166
    Field gammaInt not found
--> FOAM Warning : 
    From virtual bool Foam::functionObjects::fieldSelection::checkSelection()
    in file functionObjects/fieldSelections/fieldSelection/fieldSelection.C at line 166
    Field omega not found
--> FOAM Warning : 
    From virtual bool Foam::functionObjects::fieldSelection::checkSelection()
    in file functionObjects/fieldSelections/fieldSelection/fieldSelection.C at line 166
    Field ReThetat not found
--> FOAM Warning : 
    From virtual bool Foam::functionObjects::fieldSelection::checkSelection()
    in file functionObjects/fieldSelections/fieldSelection/fieldSelection.C at line 166
    Field epsilon not found
--> FOAM Warning : 
    From virtual bool Foam::functionObjects::solverFieldSelection::updateSelection()
    in file functionObjects/fieldSelections/solverFieldSelection/solverFieldSelection.C at line 85
    Valid solver fields are: 3(U nuTilda p)Time = 2

velocityDampingConstraint velocityDamping damped 0 (0%) of cells, with max limit 300
smoothSolver:  Solving for Ux, Initial residual = 0.4348473099481788, Final residual = 0.02768660523006236, No Iterations 5
smoothSolver:  Solving for Uy, Initial residual = 0.5804690483416829, Final residual = 0.03736172302511377, No Iterations 5
smoothSolver:  Solving for Uz, Initial residual = 0.5439755826718831, Final residual = 0.05411082038168443, No Iterations 4
[OGL LOG][Proc: 0]: global_index_init: 0.016 [ms]
[OGL LOG][Proc: 0]p_local_coeffs: call_update: 0.001 [ms]
[OGL LOG][Proc: 0]p_non_local_coeffs: call_update: 0 [ms]
[OGL LOG][Proc: 0]p: update_local_matrix_data: 242.88 [ms]
[OGL LOG][Proc: 0]p: update_non_local_matrix_data: 0.856 [ms]
[OGL LOG][Proc: 0]p_matrix: call_update: 3.95 [ms]
[OGL LOG][Proc: 0]p_rhs: call_update: 14.989 [ms]
[OGL LOG][Preconditioner.H:346] Generate preconditioner Multigrid MaxLevels 9 MinCoarseRows 10 ZeroGuess 1 Cycle v
[OGL LOG][Proc: 0]p: init_precond: 1165.437 [ms]
[OGL LOG][StoppingCriterion.H:239] Creating stopping criterion with minIter 62 frequency 1
[OGL LOG][Proc: 0]p: generate_solver: 0.014 [ms]
[OGL LOG][Proc: 0]p: solve: 1200.264 [ms]
[OGL LOG][Proc: 0]p: copy_x_back: 25.378 [ms]
[OGL LOG][lduLduBase.H:330] 
Statistics:
	Time per iteration: 19051 [mu s]
	Time per residual norm calculation: 195.000000 [mu s]
	Time per iteration and DOF: 0.755137 [ns]
	Retrieve results bandwidth 1.990000 [GByte/s]
[OGL LOG][Proc: 0]p: solve_multi_gpu: 2437.883 [ms]
MultigridcudaGKOCG:  Solving for p, Initial residual = 0.4314626112259459, Final residual = 0.002024032755013618, No Iterations 63
time step continuity errors : sum local = 0.04416059001311823, global = 0.006387296158603492, cumulative = 0.006436580799211944
smoothSolver:  Solving for nuTilda, Initial residual = 0.2989434705982402, Final residual = 0.01979765524367051, No Iterations 2
ExecutionTime = 387.1 s  ClockTime = 389 s

Time = 3

velocityDampingConstraint velocityDamping damped 18403 (0.07000000000000001%) of cells, with max limit 300
smoothSolver:  Solving for Ux, Initial residual = 0.2909297094355818, Final residual = 0.01802024292271666, No Iterations 2
smoothSolver:  Solving for Uy, Initial residual = 0.2820858602168102, Final residual = 0.02587669781900994, No Iterations 4
smoothSolver:  Solving for Uz, Initial residual = 0.257809136718916, Final residual = 0.02241236651172248, No Iterations 4
[OGL LOG][Proc: 0]: global_index_init: 0.023 [ms]
[OGL LOG][Proc: 0]p_local_coeffs: call_update: 0 [ms]
[OGL LOG][Proc: 0]p_non_local_coeffs: call_update: 0 [ms]
[OGL LOG][Proc: 0]p: update_local_matrix_data: 243.815 [ms]
[OGL LOG][Proc: 0]p: update_non_local_matrix_data: 0.982 [ms]
[OGL LOG][Proc: 0]p_matrix: call_update: 3.904 [ms]
[OGL LOG][Proc: 0]p_rhs: call_update: 15.259 [ms]
[OGL LOG][Preconditioner.H:346] Generate preconditioner Multigrid MaxLevels 9 MinCoarseRows 10 ZeroGuess 1 Cycle v
[OGL LOG][Proc: 0]p: init_precond: 1131.15 [ms]
[OGL LOG][StoppingCriterion.H:239] Creating stopping criterion with minIter 37 frequency 1
[OGL LOG][Proc: 0]p: generate_solver: 0.013 [ms]
[OGL LOG][Proc: 0]p: solve: 1487.672 [ms]
[OGL LOG][Proc: 0]p: copy_x_back: 25.251 [ms]
[OGL LOG][lduLduBase.H:330] 
Statistics:
	Time per iteration: 17710 [mu s]
	Time per residual norm calculation: 177.000000 [mu s]
	Time per iteration and DOF: 0.701983 [ns]
	Retrieve results bandwidth 2.000000 [GByte/s]
[OGL LOG][Proc: 0]p: solve_multi_gpu: 2690.214 [ms]
MultigridcudaGKOCG:  Solving for p, Initial residual = 0.3207955645818637, Final residual = 0.003099564581232842, No Iterations 84
time step continuity errors : sum local = 0.02054705239053168, global = 0.0005036234533844657, cumulative = 0.006940204252596409
smoothSolver:  Solving for nuTilda, Initial residual = 0.3317327968695477, Final residual = 0.02739443730453019, No Iterations 1
ExecutionTime = 418.2 s  ClockTime = 420 s

Time = 4

velocityDampingConstraint velocityDamping damped 174 (0%) of cells, with max limit 300
smoothSolver:  Solving for Ux, Initial residual = 0.03619566343249254, Final residual = 0.002913440301765942, No Iterations 4
smoothSolver:  Solving for Uy, Initial residual = 0.05302781939551527, Final residual = 0.004599848272502733, No Iterations 4
smoothSolver:  Solving for Uz, Initial residual = 0.05011867297369628, Final residual = 0.004425395081642395, No Iterations 4
[OGL LOG][Proc: 0]: global_index_init: 0.015 [ms]
[OGL LOG][Proc: 0]p_local_coeffs: call_update: 0 [ms]
[OGL LOG][Proc: 0]p_non_local_coeffs: call_update: 0 [ms]
[OGL LOG][Proc: 0]p: update_local_matrix_data: 243.162 [ms]
[OGL LOG][Proc: 0]p: update_non_local_matrix_data: 0.777 [ms]
[OGL LOG][Proc: 0]p_matrix: call_update: 4.23 [ms]
[OGL LOG][Proc: 0]p_rhs: call_update: 15.018 [ms]
[OGL LOG][Preconditioner.H:346] Generate preconditioner Multigrid MaxLevels 9 MinCoarseRows 10 ZeroGuess 1 Cycle v
[OGL LOG][Proc: 0]p: init_precond: 1122.878 [ms]
[OGL LOG][StoppingCriterion.H:239] Creating stopping criterion with minIter 50 frequency 1
[OGL LOG][Proc: 0]p: generate_solver: 0.01 [ms]
[OGL LOG][Proc: 0]p: solve: 1014.889 [ms]
[OGL LOG][Proc: 0]p: copy_x_back: 25.222 [ms]
[OGL LOG][lduLduBase.H:330] 
Statistics:
	Time per iteration: 19899 [mu s]
	Time per residual norm calculation: 200.000000 [mu s]
	Time per iteration and DOF: 0.788749 [ns]
	Retrieve results bandwidth 2.002000 [GByte/s]
[OGL LOG][Proc: 0]p: solve_multi_gpu: 2209.411 [ms]
MultigridcudaGKOCG:  Solving for p, Initial residual = 0.427387512881395, Final residual = 0.00149887625188503, No Iterations 51
time step continuity errors : sum local = 0.01592439129407759, global = -0.002331287110257067, cumulative = 0.004608917142339342
smoothSolver:  Solving for nuTilda, Initial residual = 0.1526380740592879, Final residual = 0.006609944139101439, No Iterations 3
ExecutionTime = 450.11 s  ClockTime = 452 s

Time = 5

velocityDampingConstraint velocityDamping damped 5492 (0.02%) of cells, with max limit 300
smoothSolver:  Solving for Ux, Initial residual = 0.1804302001222363, Final residual = 0.01536246495425873, No Iterations 3
smoothSolver:  Solving for Uy, Initial residual = 0.2600742256942349, Final residual = 0.02093976600118205, No Iterations 4
smoothSolver:  Solving for Uz, Initial residual = 0.2194740651611445, Final residual = 0.01677079145808727, No Iterations 4
[OGL LOG][Proc: 0]: global_index_init: 0.017 [ms]
[OGL LOG][Proc: 0]p_local_coeffs: call_update: 0 [ms]
[OGL LOG][Proc: 0]p_non_local_coeffs: call_update: 0 [ms]
[OGL LOG][Proc: 0]p: update_local_matrix_data: 243.126 [ms]
[OGL LOG][Proc: 0]p: update_non_local_matrix_data: 0.956 [ms]
[OGL LOG][Proc: 0]p_matrix: call_update: 4.264 [ms]
[OGL LOG][Proc: 0]p_rhs: call_update: 14.996 [ms]
[OGL LOG][Preconditioner.H:346] Generate preconditioner Multigrid MaxLevels 9 MinCoarseRows 10 ZeroGuess 1 Cycle v
[OGL LOG][Proc: 0]p: init_precond: 1118.522 [ms]
[OGL LOG][StoppingCriterion.H:239] Creating stopping criterion with minIter 30 frequency 1
[OGL LOG][Proc: 0]p: generate_solver: 0.017 [ms]
[OGL LOG][Proc: 0]p: solve: 1426.843 [ms]
[OGL LOG][Proc: 0]p: copy_x_back: 25.208 [ms]
[OGL LOG][lduLduBase.H:330] 
Statistics:
	Time per iteration: 18292 [mu s]
	Time per residual norm calculation: 177.000000 [mu s]
	Time per iteration and DOF: 0.725052 [ns]
	Retrieve results bandwidth 2.003000 [GByte/s]
[OGL LOG][Proc: 0]p: solve_multi_gpu: 2616.788 [ms]
MultigridcudaGKOCG:  Solving for p, Initial residual = 0.3084595812276601, Final residual = 0.003018824527108849, No Iterations 78
time step continuity errors : sum local = 0.02895184545102553, global = -0.0008989264427006824, cumulative = 0.00370999069963866
smoothSolver:  Solving for nuTilda, Initial residual = 0.1177638891399409, Final residual = 0.01035858674391602, No Iterations 2
ExecutionTime = 481.92 s  ClockTime = 484 s

Time = 6

velocityDampingConstraint velocityDamping damped 455 (0%) of cells, with max limit 300
smoothSolver:  Solving for Ux, Initial residual = 0.1326079519190273, Final residual = 0.01243385381007789, No Iterations 4
smoothSolver:  Solving for Uy, Initial residual = 0.2511610251072035, Final residual = 0.02509290124523544, No Iterations 4
smoothSolver:  Solving for Uz, Initial residual = 0.2035032979909487, Final residual = 0.01951104446882791, No Iterations 4
[OGL LOG][Proc: 0]: global_index_init: 0.021 [ms]
[OGL LOG][Proc: 0]p_local_coeffs: call_update: 0 [ms]
[OGL LOG][Proc: 0]p_non_local_coeffs: call_update: 0 [ms]
[OGL LOG][Proc: 0]p: update_local_matrix_data: 243.184 [ms]
[OGL LOG][Proc: 0]p: update_non_local_matrix_data: 0.919 [ms]
[OGL LOG][Proc: 0]p_matrix: call_update: 4.223 [ms]
[OGL LOG][Proc: 0]p_rhs: call_update: 15.004 [ms]
[OGL LOG][Preconditioner.H:346] Generate preconditioner Multigrid MaxLevels 9 MinCoarseRows 10 ZeroGuess 1 Cycle v
[OGL LOG][Proc: 0]p: init_precond: 1135.991 [ms]
[OGL LOG][StoppingCriterion.H:239] Creating stopping criterion with minIter 46 frequency 1
[OGL LOG][Proc: 0]p: generate_solver: 0.008999999999999999 [ms]
[OGL LOG][Proc: 0]p: solve: 1011.964 [ms]
[OGL LOG][Proc: 0]p: copy_x_back: 25.091 [ms]
[OGL LOG][lduLduBase.H:330] 
Statistics:
	Time per iteration: 19842 [mu s]
	Time per residual norm calculation: 182.000000 [mu s]
	Time per iteration and DOF: 0.786490 [ns]
	Retrieve results bandwidth 2.012000 [GByte/s]
[OGL LOG][Proc: 0]p: solve_multi_gpu: 2219.296 [ms]
MultigridcudaGKOCG:  Solving for p, Initial residual = 0.3937410375659145, Final residual = 0.003863957323518052, No Iterations 51
time step continuity errors : sum local = 0.02857798653363373, global = -0.003992855717021468, cumulative = -0.0002828650173828085
smoothSolver:  Solving for nuTilda, Initial residual = 0.07910625038334661, Final residual = 0.004923006297667509, No Iterations 3
ExecutionTime = 514.08 s  ClockTime = 516 s

Time = 7

velocityDampingConstraint velocityDamping damped 1889 (0.01%) of cells, with max limit 300
smoothSolver:  Solving for Ux, Initial residual = 0.09496498371469247, Final residual = 0.006020825662236701, No Iterations 4
smoothSolver:  Solving for Uy, Initial residual = 0.1092183964295845, Final residual = 0.008081626228224408, No Iterations 4
smoothSolver:  Solving for Uz, Initial residual = 0.1034147528620239, Final residual = 0.007716262780541354, No Iterations 4
[OGL LOG][Proc: 0]: global_index_init: 0.019 [ms]
[OGL LOG][Proc: 0]p_local_coeffs: call_update: 0 [ms]
[OGL LOG][Proc: 0]p_non_local_coeffs: call_update: 0 [ms]
[OGL LOG][Proc: 0]p: update_local_matrix_data: 244.151 [ms]
[OGL LOG][Proc: 0]p: update_non_local_matrix_data: 0.775 [ms]
[OGL LOG][Proc: 0]p_matrix: call_update: 3.986 [ms]
[OGL LOG][Proc: 0]p_rhs: call_update: 15.033 [ms]
[OGL LOG][Preconditioner.H:346] Generate preconditioner Multigrid MaxLevels 9 MinCoarseRows 10 ZeroGuess 1 Cycle v
[OGL LOG][Proc: 0]p: init_precond: 1112.721 [ms]
[OGL LOG][StoppingCriterion.H:239] Creating stopping criterion with minIter 30 frequency 1
[OGL LOG][Proc: 0]p: generate_solver: 0.008999999999999999 [ms]
[OGL LOG][Proc: 0]p: solve: 730.013 [ms]
[OGL LOG][Proc: 0]p: copy_x_back: 25.376 [ms]
[OGL LOG][lduLduBase.H:330] 
Statistics:
	Time per iteration: 23548 [mu s]
	Time per residual norm calculation: 206.000000 [mu s]
	Time per iteration and DOF: 0.933387 [ns]
	Retrieve results bandwidth 1.990000 [GByte/s]
[OGL LOG][Proc: 0]p: solve_multi_gpu: 1914.161 [ms]
MultigridcudaGKOCG:  Solving for p, Initial residual = 0.2669898558845938, Final residual = 0.002394588045873918, No Iterations 31
time step continuity errors : sum local = 0.01820127229106623, global = -0.002054897726922892, cumulative = -0.002337762744305701
smoothSolver:  Solving for nuTilda, Initial residual = 0.06378288083201479, Final residual = 0.003943076896103061, No Iterations 3
ExecutionTime = 545.99 s  ClockTime = 548 s

Time = 8

velocityDampingConstraint velocityDamping damped 1995 (0.01%) of cells, with max limit 300
smoothSolver:  Solving for Ux, Initial residual = 0.1216692895713008, Final residual = 0.009601855921082992, No Iterations 4
smoothSolver:  Solving for Uy, Initial residual = 0.1762402921044892, Final residual = 0.01565297172776023, No Iterations 4
smoothSolver:  Solving for Uz, Initial residual = 0.1706699260184932, Final residual = 0.01500424701869428, No Iterations 4
[OGL LOG][Proc: 0]: global_index_init: 0.016 [ms]
[OGL LOG][Proc: 0]p_local_coeffs: call_update: 0 [ms]
[OGL LOG][Proc: 0]p_non_local_coeffs: call_update: 0 [ms]
[OGL LOG][Proc: 0]p: update_local_matrix_data: 242.947 [ms]
[OGL LOG][Proc: 0]p: update_non_local_matrix_data: 0.863 [ms]
[OGL LOG][Proc: 0]p_matrix: call_update: 4.022 [ms]
[OGL LOG][Proc: 0]p_rhs: call_update: 14.996 [ms]
[OGL LOG][Preconditioner.H:346] Generate preconditioner Multigrid MaxLevels 9 MinCoarseRows 10 ZeroGuess 1 Cycle v
[OGL LOG][Proc: 0]p: init_precond: 1116.903 [ms]
[OGL LOG][StoppingCriterion.H:239] Creating stopping criterion with minIter 18 frequency 1
[OGL LOG][Proc: 0]p: generate_solver: 0.008999999999999999 [ms]
[OGL LOG][Proc: 0]p: solve: 1399.354 [ms]
[OGL LOG][Proc: 0]p: copy_x_back: 25.132 [ms]
[OGL LOG][lduLduBase.H:330] 
Statistics:
	Time per iteration: 18173 [mu s]
	Time per residual norm calculation: 176.000000 [mu s]
	Time per iteration and DOF: 0.720335 [ns]
	Retrieve results bandwidth 2.009000 [GByte/s]
[OGL LOG][Proc: 0]p: solve_multi_gpu: 2587.408 [ms]
MultigridcudaGKOCG:  Solving for p, Initial residual = 0.2736674843397446, Final residual = 0.002718461384096909, No Iterations 77
time step continuity errors : sum local = 0.01936117013470645, global = 0.0006987101354435023, cumulative = -0.001639052608862198
smoothSolver:  Solving for nuTilda, Initial residual = 0.04898130172188905, Final residual = 0.003776767838547976, No Iterations 3
ExecutionTime = 578.47 s  ClockTime = 581 s

Time = 9

velocityDampingConstraint velocityDamping damped 52 (0%) of cells, with max limit 300
smoothSolver:  Solving for Ux, Initial residual = 0.07215109780943438, Final residual = 0.005805500148333582, No Iterations 4
smoothSolver:  Solving for Uy, Initial residual = 0.1084217988551227, Final residual = 0.01019507889972299, No Iterations 4
smoothSolver:  Solving for Uz, Initial residual = 0.1026705201917348, Final residual = 0.009322129799078677, No Iterations 4
[OGL LOG][Proc: 0]: global_index_init: 0.022 [ms]
[OGL LOG][Proc: 0]p_local_coeffs: call_update: 0 [ms]
[OGL LOG][Proc: 0]p_non_local_coeffs: call_update: 0 [ms]
[OGL LOG][Proc: 0]p: update_local_matrix_data: 242.931 [ms]
[OGL LOG][Proc: 0]p: update_non_local_matrix_data: 0.881 [ms]
[OGL LOG][Proc: 0]p_matrix: call_update: 4.104 [ms]
[OGL LOG][Proc: 0]p_rhs: call_update: 14.978 [ms]
[OGL LOG][Preconditioner.H:346] Generate preconditioner Multigrid MaxLevels 9 MinCoarseRows 10 ZeroGuess 1 Cycle v
[OGL LOG][Proc: 0]p: init_precond: 1250.39 [ms]
[OGL LOG][StoppingCriterion.H:239] Creating stopping criterion with minIter 46 frequency 1
[OGL LOG][Proc: 0]p: generate_solver: 0.008999999999999999 [ms]
[OGL LOG][Proc: 0]p: solve: 1422.194 [ms]
[OGL LOG][Proc: 0]p: copy_x_back: 24.984 [ms]
[OGL LOG][lduLduBase.H:330] 
Statistics:
	Time per iteration: 18962 [mu s]
	Time per residual norm calculation: 166.000000 [mu s]
	Time per iteration and DOF: 0.751609 [ns]
	Retrieve results bandwidth 2.021000 [GByte/s]
[OGL LOG][Proc: 0]p: solve_multi_gpu: 2743.58 [ms]
MultigridcudaGKOCG:  Solving for p, Initial residual = 0.4421953205456879, Final residual = 0.004267089717685997, No Iterations 75
time step continuity errors : sum local = 0.02019362375033057, global = 0.0009311622249018661, cumulative = -0.0007078903839603321
smoothSolver:  Solving for nuTilda, Initial residual = 0.04223857069042045, Final residual = 0.003159549914256728, No Iterations 3
ExecutionTime = 610.87 s  ClockTime = 613 s

Time = 10

velocityDampingConstraint velocityDamping damped 169 (0%) of cells, with max limit 300
smoothSolver:  Solving for Ux, Initial residual = 0.02848693984512621, Final residual = 0.002028185422314901, No Iterations 4
smoothSolver:  Solving for Uy, Initial residual = 0.0592946008580665, Final residual = 0.004378484896400479, No Iterations 4
smoothSolver:  Solving for Uz, Initial residual = 0.05840169900177591, Final residual = 0.004420063349130491, No Iterations 4
[OGL LOG][Proc: 0]: global_index_init: 0.016 [ms]
[OGL LOG][Proc: 0]p_local_coeffs: call_update: 0 [ms]
[OGL LOG][Proc: 0]p_non_local_coeffs: call_update: 0 [ms]
[OGL LOG][Proc: 0]p: update_local_matrix_data: 242.697 [ms]
[OGL LOG][Proc: 0]p: update_non_local_matrix_data: 0.831 [ms]
[OGL LOG][Proc: 0]p_matrix: call_update: 4.083 [ms]
[OGL LOG][Proc: 0]p_rhs: call_update: 14.943 [ms]
[OGL LOG][Preconditioner.H:346] Generate preconditioner Multigrid MaxLevels 9 MinCoarseRows 10 ZeroGuess 1 Cycle v
[OGL LOG][Proc: 0]p: init_precond: 1105.9 [ms]
[OGL LOG][StoppingCriterion.H:239] Creating stopping criterion with minIter 45 frequency 1
[OGL LOG][Proc: 0]p: generate_solver: 0.01 [ms]
[OGL LOG][Proc: 0]p: solve: 952.741 [ms]
[OGL LOG][Proc: 0]p: copy_x_back: 25.102 [ms]
[OGL LOG][lduLduBase.H:330] 
Statistics:
	Time per iteration: 20711 [mu s]
	Time per residual norm calculation: 191.000000 [mu s]
	Time per iteration and DOF: 0.820935 [ns]
	Retrieve results bandwidth 2.012000 [GByte/s]
[OGL LOG][Proc: 0]p: solve_multi_gpu: 2129.717 [ms]
MultigridcudaGKOCG:  Solving for p, Initial residual = 0.3794726353682741, Final residual = 0.001631294225310456, No Iterations 46
time step continuity errors : sum local = 0.00754130025915032, global = -0.001215207805595679, cumulative = -0.001923098189556011
smoothSolver:  Solving for nuTilda, Initial residual = 0.03548339005150158, Final residual = 0.002959339146577696, No Iterations 3
ExecutionTime = 642.61 s  ClockTime = 645 s

Time = 11

velocityDampingConstraint velocityDamping damped 626 (0%) of cells, with max limit 300
smoothSolver:  Solving for Ux, Initial residual = 0.04009393961039006, Final residual = 0.003154160342987402, No Iterations 4
smoothSolver:  Solving for Uy, Initial residual = 0.1034701070898245, Final residual = 0.009007390262530718, No Iterations 4
smoothSolver:  Solving for Uz, Initial residual = 0.09716617480552446, Final residual = 0.008500587822117272, No Iterations 4
[OGL LOG][Proc: 0]: global_index_init: 0.017 [ms]
[OGL LOG][Proc: 0]p_local_coeffs: call_update: 0 [ms]
[OGL LOG][Proc: 0]p_non_local_coeffs: call_update: 0 [ms]
[OGL LOG][Proc: 0]p: update_local_matrix_data: 243.175 [ms]
[OGL LOG][Proc: 0]p: update_non_local_matrix_data: 0.894 [ms]
[OGL LOG][Proc: 0]p_matrix: call_update: 3.986 [ms]
[OGL LOG][Proc: 0]p_rhs: call_update: 15.01 [ms]
[OGL LOG][Preconditioner.H:346] Generate preconditioner Multigrid MaxLevels 9 MinCoarseRows 10 ZeroGuess 1 Cycle v
[OGL LOG][Proc: 0]p: init_precond: 1121.709 [ms]
[OGL LOG][StoppingCriterion.H:239] Creating stopping criterion with minIter 27 frequency 1
[OGL LOG][Proc: 0]p: generate_solver: 0.008999999999999999 [ms]
[OGL LOG][Proc: 0]p: solve: 1382.376 [ms]
[OGL LOG][Proc: 0]p: copy_x_back: 25.497 [ms]
[OGL LOG][lduLduBase.H:330] 
Statistics:
	Time per iteration: 18189 [mu s]
	Time per residual norm calculation: 175.000000 [mu s]
	Time per iteration and DOF: 0.720969 [ns]
	Retrieve results bandwidth 1.980000 [GByte/s]
[OGL LOG][Proc: 0]p: solve_multi_gpu: 2575.632 [ms]
MultigridcudaGKOCG:  Solving for p, Initial residual = 0.4033039942844238, Final residual = 0.003735690442652274, No Iterations 76
time step continuity errors : sum local = 0.01558840946128547, global = -0.000424188741025315, cumulative = -0.002347286930581326
smoothSolver:  Solving for nuTilda, Initial residual = 0.03222607234506447, Final residual = 0.002573332307605589, No Iterations 3
ExecutionTime = 674.8 s  ClockTime = 677 s

Time = 12

velocityDampingConstraint velocityDamping damped 46 (0%) of cells, with max limit 300
smoothSolver:  Solving for Ux, Initial residual = 0.03868793903859513, Final residual = 0.003338977990525566, No Iterations 4
smoothSolver:  Solving for Uy, Initial residual = 0.08073372007838484, Final residual = 0.007119921684033267, No Iterations 4
smoothSolver:  Solving for Uz, Initial residual = 0.08040904066913926, Final residual = 0.006887447853855944, No Iterations 4
[OGL LOG][Proc: 0]: global_index_init: 0.022 [ms]
[OGL LOG][Proc: 0]p_local_coeffs: call_update: 0 [ms]
[OGL LOG][Proc: 0]p_non_local_coeffs: call_update: 0 [ms]
[OGL LOG][Proc: 0]p: update_local_matrix_data: 244.089 [ms]
[OGL LOG][Proc: 0]p: update_non_local_matrix_data: 0.8070000000000001 [ms]
[OGL LOG][Proc: 0]p_matrix: call_update: 4.285 [ms]
[OGL LOG][Proc: 0]p_rhs: call_update: 14.942 [ms]
[OGL LOG][Preconditioner.H:346] Generate preconditioner Multigrid MaxLevels 9 MinCoarseRows 10 ZeroGuess 1 Cycle v
[OGL LOG][Proc: 0]p: init_precond: 1127.264 [ms]
[OGL LOG][StoppingCriterion.H:239] Creating stopping criterion with minIter 45 frequency 1
[OGL LOG][Proc: 0]p: generate_solver: 0.008999999999999999 [ms]
[OGL LOG][Proc: 0]p: solve: 939.851 [ms]
[OGL LOG][Proc: 0]p: copy_x_back: 25.054 [ms]
[OGL LOG][lduLduBase.H:330] 
Statistics:
	Time per iteration: 20431 [mu s]
	Time per residual norm calculation: 191.000000 [mu s]
	Time per iteration and DOF: 0.809837 [ns]
	Retrieve results bandwidth 2.015000 [GByte/s]
[OGL LOG][Proc: 0]p: solve_multi_gpu: 2138.413 [ms]
MultigridcudaGKOCG:  Solving for p, Initial residual = 0.396644490268247, Final residual = 0.003401988695934983, No Iterations 46
time step continuity errors : sum local = 0.01298836900642978, global = -0.001625176903942607, cumulative = -0.003972463834523932
smoothSolver:  Solving for nuTilda, Initial residual = 0.02868188199845348, Final residual = 0.002517168281344069, No Iterations 3
ExecutionTime = 706.55 s  ClockTime = 709 s

Time = 13

velocityDampingConstraint velocityDamping damped 43 (0%) of cells, with max limit 300
smoothSolver:  Solving for Ux, Initial residual = 0.02929133108462013, Final residual = 0.002372295097089619, No Iterations 4
smoothSolver:  Solving for Uy, Initial residual = 0.05825056088704775, Final residual = 0.004666918098372533, No Iterations 4
smoothSolver:  Solving for Uz, Initial residual = 0.05967715406122572, Final residual = 0.004600227817665292, No Iterations 4
[OGL LOG][Proc: 0]: global_index_init: 0.016 [ms]
[OGL LOG][Proc: 0]p_local_coeffs: call_update: 0 [ms]
[OGL LOG][Proc: 0]p_non_local_coeffs: call_update: 0 [ms]
[OGL LOG][Proc: 0]p: update_local_matrix_data: 243.822 [ms]
[OGL LOG][Proc: 0]p: update_non_local_matrix_data: 0.776 [ms]
[OGL LOG][Proc: 0]p_matrix: call_update: 3.983 [ms]
[OGL LOG][Proc: 0]p_rhs: call_update: 14.983 [ms]
[OGL LOG][Preconditioner.H:346] Generate preconditioner Multigrid MaxLevels 9 MinCoarseRows 10 ZeroGuess 1 Cycle v
[OGL LOG][Proc: 0]p: init_precond: 1118.616 [ms]
[OGL LOG][StoppingCriterion.H:239] Creating stopping criterion with minIter 27 frequency 1
[OGL LOG][Proc: 0]p: generate_solver: 0.01 [ms]
[OGL LOG][Proc: 0]p: solve: 725.817 [ms]
[OGL LOG][Proc: 0]p: copy_x_back: 25.191 [ms]
[OGL LOG][lduLduBase.H:330] 
Statistics:
	Time per iteration: 23413 [mu s]
	Time per residual norm calculation: 175.000000 [mu s]
	Time per iteration and DOF: 0.928036 [ns]
	Retrieve results bandwidth 2.004000 [GByte/s]
[OGL LOG][Proc: 0]p: solve_multi_gpu: 1915.61 [ms]
MultigridcudaGKOCG:  Solving for p, Initial residual = 0.3790527094564906, Final residual = 0.003709115362588446, No Iterations 31
time step continuity errors : sum local = 0.01346658063088469, global = -0.0003476763905166592, cumulative = -0.004320140225040591
smoothSolver:  Solving for nuTilda, Initial residual = 0.02780246748055144, Final residual = 0.002333046899347836, No Iterations 3
ExecutionTime = 738.23 s  ClockTime = 741 s

Time = 14

velocityDampingConstraint velocityDamping damped 237 (0%) of cells, with max limit 300
smoothSolver:  Solving for Ux, Initial residual = 0.03643525194490926, Final residual = 0.002918926304327408, No Iterations 4
smoothSolver:  Solving for Uy, Initial residual = 0.06991616571413733, Final residual = 0.006249911544909404, No Iterations 4
smoothSolver:  Solving for Uz, Initial residual = 0.06849674309582891, Final residual = 0.006046939762482779, No Iterations 4
[OGL LOG][Proc: 0]: global_index_init: 0.018 [ms]
[OGL LOG][Proc: 0]p_local_coeffs: call_update: 0 [ms]
[OGL LOG][Proc: 0]p_non_local_coeffs: call_update: 0 [ms]
[OGL LOG][Proc: 0]p: update_local_matrix_data: 244.443 [ms]
[OGL LOG][Proc: 0]p: update_non_local_matrix_data: 0.913 [ms]
[OGL LOG][Proc: 0]p_matrix: call_update: 4.025 [ms]
[OGL LOG][Proc: 0]p_rhs: call_update: 15.042 [ms]
[OGL LOG][Preconditioner.H:346] Generate preconditioner Multigrid MaxLevels 9 MinCoarseRows 10 ZeroGuess 1 Cycle v
[OGL LOG][Proc: 0]p: init_precond: 1118.116 [ms]
[OGL LOG][StoppingCriterion.H:239] Creating stopping criterion with minIter 18 frequency 1
[OGL LOG][Proc: 0]p: generate_solver: 0.008999999999999999 [ms]
[OGL LOG][Proc: 0]p: solve: 1366.261 [ms]
[OGL LOG][Proc: 0]p: copy_x_back: 25.087 [ms]
[OGL LOG][lduLduBase.H:330] 
Statistics:
	Time per iteration: 18216 [mu s]
	Time per residual norm calculation: 174.000000 [mu s]
	Time per iteration and DOF: 0.722039 [ns]
	Retrieve results bandwidth 2.013000 [GByte/s]
[OGL LOG][Proc: 0]p: solve_multi_gpu: 2555.404 [ms]
MultigridcudaGKOCG:  Solving for p, Initial residual = 0.3379373174598132, Final residual = 0.003083274440176866, No Iterations 75
time step continuity errors : sum local = 0.01011371257775739, global = 0.0003018638289224932, cumulative = -0.004018276396118098
smoothSolver:  Solving for nuTilda, Initial residual = 0.02584969550920822, Final residual = 0.002358452586137191, No Iterations 3
ExecutionTime = 770.38 s  ClockTime = 773 s

Time = 15

velocityDampingConstraint velocityDamping damped 23 (0%) of cells, with max limit 300
smoothSolver:  Solving for Ux, Initial residual = 0.02765943826414647, Final residual = 0.002219459238407427, No Iterations 4
smoothSolver:  Solving for Uy, Initial residual = 0.04765044084562475, Final residual = 0.004184768384456116, No Iterations 4
smoothSolver:  Solving for Uz, Initial residual = 0.04737305526207955, Final residual = 0.004029698147378351, No Iterations 4
[OGL LOG][Proc: 0]: global_index_init: 0.023 [ms]
[OGL LOG][Proc: 0]p_local_coeffs: call_update: 0 [ms]
[OGL LOG][Proc: 0]p_non_local_coeffs: call_update: 0 [ms]
[OGL LOG][Proc: 0]p: update_local_matrix_data: 243.146 [ms]
[OGL LOG][Proc: 0]p: update_non_local_matrix_data: 0.893 [ms]
[OGL LOG][Proc: 0]p_matrix: call_update: 3.817 [ms]
[OGL LOG][Proc: 0]p_rhs: call_update: 15.212 [ms]
[OGL LOG][Preconditioner.H:346] Generate preconditioner Multigrid MaxLevels 9 MinCoarseRows 10 ZeroGuess 1 Cycle v
[OGL LOG][Proc: 0]p: init_precond: 1131.162 [ms]
[OGL LOG][StoppingCriterion.H:239] Creating stopping criterion with minIter 45 frequency 1
[OGL LOG][Proc: 0]p: generate_solver: 0.008999999999999999 [ms]
[OGL LOG][Proc: 0]p: solve: 937.612 [ms]
[OGL LOG][Proc: 0]p: copy_x_back: 25.026 [ms]
[OGL LOG][lduLduBase.H:330] 
Statistics:
	Time per iteration: 20382 [mu s]
	Time per residual norm calculation: 196.000000 [mu s]
	Time per iteration and DOF: 0.807894 [ns]
	Retrieve results bandwidth 2.018000 [GByte/s]
[OGL LOG][Proc: 0]p: solve_multi_gpu: 2139.786 [ms]
MultigridcudaGKOCG:  Solving for p, Initial residual = 0.3328955851437055, Final residual = 0.003233915303286206, No Iterations 46
time step continuity errors : sum local = 0.009652575789160768, global = 0.001627299280352579, cumulative = -0.002390977115765519
smoothSolver:  Solving for nuTilda, Initial residual = 0.0258133719894994, Final residual = 0.002204399290042291, No Iterations 3
ExecutionTime = 802.2 s  ClockTime = 805 s

Time = 16

velocityDampingConstraint velocityDamping damped 1 (0%) of cells, with max limit 300
smoothSolver:  Solving for Ux, Initial residual = 0.01765114892393245, Final residual = 0.001332592443168545, No Iterations 4
smoothSolver:  Solving for Uy, Initial residual = 0.03817484280586047, Final residual = 0.002872679766236111, No Iterations 4
smoothSolver:  Solving for Uz, Initial residual = 0.04215314212715017, Final residual = 0.003281664466317767, No Iterations 4
[OGL LOG][Proc: 0]: global_index_init: 0.017 [ms]
[OGL LOG][Proc: 0]p_local_coeffs: call_update: 0 [ms]
[OGL LOG][Proc: 0]p_non_local_coeffs: call_update: 0 [ms]
[OGL LOG][Proc: 0]p: update_local_matrix_data: 243.879 [ms]
[OGL LOG][Proc: 0]p: update_non_local_matrix_data: 0.784 [ms]
[OGL LOG][Proc: 0]p_matrix: call_update: 4.207 [ms]
[OGL LOG][Proc: 0]p_rhs: call_update: 14.99 [ms]
[OGL LOG][Preconditioner.H:346] Generate preconditioner Multigrid MaxLevels 9 MinCoarseRows 10 ZeroGuess 1 Cycle v
[OGL LOG][Proc: 0]p: init_precond: 1125.23 [ms]
[OGL LOG][StoppingCriterion.H:239] Creating stopping criterion with minIter 27 frequency 1
[OGL LOG][Proc: 0]p: generate_solver: 0.018 [ms]
[OGL LOG][Proc: 0]p: solve: 751.37 [ms]
[OGL LOG][Proc: 0]p: copy_x_back: 25.022 [ms]
[OGL LOG][lduLduBase.H:330] 
Statistics:
	Time per iteration: 22768 [mu s]
	Time per residual norm calculation: 180.000000 [mu s]
	Time per iteration and DOF: 0.902470 [ns]
	Retrieve results bandwidth 2.018000 [GByte/s]
[OGL LOG][Proc: 0]p: solve_multi_gpu: 1947.679 [ms]
MultigridcudaGKOCG:  Solving for p, Initial residual = 0.4423262211813396, Final residual = 0.004272590686851281, No Iterations 33
time step continuity errors : sum local = 0.009668939732053827, global = 0.001184560604961157, cumulative = -0.001206416510804361
smoothSolver:  Solving for nuTilda, Initial residual = 0.02368963985950741, Final residual = 0.002225391805849405, No Iterations 3
ExecutionTime = 833.7 s  ClockTime = 837 s

Time = 17

velocityDampingConstraint velocityDamping damped 8 (0%) of cells, with max limit 300
smoothSolver:  Solving for Ux, Initial residual = 0.01548267068120778, Final residual = 0.001139681991485111, No Iterations 4
smoothSolver:  Solving for Uy, Initial residual = 0.04289637464498918, Final residual = 0.003544322133671351, No Iterations 4
smoothSolver:  Solving for Uz, Initial residual = 0.04601082764240918, Final residual = 0.003886407851650632, No Iterations 4
[OGL LOG][Proc: 0]: global_index_init: 0.016 [ms]
[OGL LOG][Proc: 0]p_local_coeffs: call_update: 0 [ms]
[OGL LOG][Proc: 0]p_non_local_coeffs: call_update: 0 [ms]
[OGL LOG][Proc: 0]p: update_local_matrix_data: 243.061 [ms]
[OGL LOG][Proc: 0]p: update_non_local_matrix_data: 0.856 [ms]
[OGL LOG][Proc: 0]p_matrix: call_update: 4.109 [ms]
[OGL LOG][Proc: 0]p_rhs: call_update: 15.286 [ms]
[OGL LOG][Preconditioner.H:346] Generate preconditioner Multigrid MaxLevels 9 MinCoarseRows 10 ZeroGuess 1 Cycle v
[OGL LOG][Proc: 0]p: init_precond: 1122.157 [ms]
[OGL LOG][StoppingCriterion.H:239] Creating stopping criterion with minIter 19 frequency 1
[OGL LOG][Proc: 0]p: generate_solver: 0.008999999999999999 [ms]
[OGL LOG][Proc: 0]p: solve: 926.2329999999999 [ms]
[OGL LOG][Proc: 0]p: copy_x_back: 25.166 [ms]
[OGL LOG][lduLduBase.H:330] 
Statistics:
	Time per iteration: 20582 [mu s]
	Time per residual norm calculation: 175.000000 [mu s]
	Time per iteration and DOF: 0.815822 [ns]
	Retrieve results bandwidth 2.006000 [GByte/s]
[OGL LOG][Proc: 0]p: solve_multi_gpu: 2119.882 [ms]
MultigridcudaGKOCG:  Solving for p, Initial residual = 0.4335232276421627, Final residual = 0.004320980678530955, No Iterations 45
time step continuity errors : sum local = 0.008734880585089894, global = -0.001312719548808682, cumulative = -0.002519136059613044
smoothSolver:  Solving for nuTilda, Initial residual = 0.0248040988902485, Final residual = 0.002070551997871107, No Iterations 3
ExecutionTime = 865.51 s  ClockTime = 868 s


    From virtual bool Foam::regIOobject::readIfModified()
    in file db/regIOobject/regIOobjectRead.C at line 271
        Re-reading object fvSolution from file "/hkfs/work/workspace/scratch/eq4036-windsorbody_setup/workspace/22857330bb7e5e04a4beb33a97fc06cb/case/system/fvSolution"
Time = 18

velocityDampingConstraint velocityDamping damped 35 (0%) of cells, with max limit 300
smoothSolver:  Solving for Ux, Initial residual = 0.01587303731278738, Final residual = 0.001211725352565753, No Iterations 4
smoothSolver:  Solving for Uy, Initial residual = 0.03577941805228672, Final residual = 0.002953011343921671, No Iterations 4
smoothSolver:  Solving for Uz, Initial residual = 0.03734995899843926, Final residual = 0.003052461020329781, No Iterations 4
[OGL LOG][Proc: 0]: global_index_init: 0.022 [ms]
[OGL LOG][Proc: 0]p_local_coeffs: call_update: 0 [ms]
[OGL LOG][Proc: 0]p_non_local_coeffs: call_update: 0 [ms]
[OGL LOG][Proc: 0]p: update_local_matrix_data: 243.65 [ms]
[OGL LOG][Proc: 0]p: update_non_local_matrix_data: 0.849 [ms]
[OGL LOG][Proc: 0]p_matrix: call_update: 3.974 [ms]
[OGL LOG][Proc: 0]p_rhs: call_update: 14.983 [ms]
[OGL LOG][Preconditioner.H:346] Generate preconditioner Multigrid MaxLevels 9 MinCoarseRows 10 ZeroGuess 1 Cycle v
[OGL LOG][Proc: 0]p: init_precond: 1122.066 [ms]
[OGL LOG][StoppingCriterion.H:239] Creating stopping criterion with minIter 27 frequency 1
[OGL LOG][Proc: 0]p: generate_solver: 0.008999999999999999 [ms]
[OGL LOG][Proc: 0]p: solve: 1274.375 [ms]
[OGL LOG][Proc: 0]p: copy_x_back: 25.215 [ms]
[OGL LOG][lduLduBase.H:330] 
Statistics:
	Time per iteration: 18469 [mu s]
	Time per residual norm calculation: 174.000000 [mu s]
	Time per iteration and DOF: 0.732068 [ns]
	Retrieve results bandwidth 2.003000 [GByte/s]
[OGL LOG][Proc: 0]p: solve_multi_gpu: 2467.515 [ms]
MultigridcudaGKOCG:  Solving for p, Initial residual = 0.2814616861612029, Final residual = 0.002641422454727711, No Iterations 69
time step continuity errors : sum local = 0.007146415187634586, global = -0.0002870863861795886, cumulative = -0.002806222445792632
smoothSolver:  Solving for nuTilda, Initial residual = 0.0220934552225144, Final residual = 0.002109993030109715, No Iterations 3
ExecutionTime = 897.5 s  ClockTime = 900 s

Time = 19

velocityDampingConstraint velocityDamping damped 1 (0%) of cells, with max limit 300
smoothSolver:  Solving for Ux, Initial residual = 0.0145295478054693, Final residual = 0.001268617991967136, No Iterations 4
smoothSolver:  Solving for Uy, Initial residual = 0.03502247833973195, Final residual = 0.002953011945513468, No Iterations 4
smoothSolver:  Solving for Uz, Initial residual = 0.035080127316973, Final residual = 0.002917582515351029, No Iterations 4
[OGL LOG][Proc: 0]: global_index_init: 0.015 [ms]
[OGL LOG][Proc: 0]p_local_coeffs: call_update: 0 [ms]
[OGL LOG][Proc: 0]p_non_local_coeffs: call_update: 0 [ms]
[OGL LOG][Proc: 0]p: update_local_matrix_data: 243.643 [ms]
[OGL LOG][Proc: 0]p: update_non_local_matrix_data: 0.804 [ms]
[OGL LOG][Proc: 0]p_matrix: call_update: 4.227 [ms]
[OGL LOG][Proc: 0]p_rhs: call_update: 15.043 [ms]
[OGL LOG][Preconditioner.H:346] Generate preconditioner Multigrid MaxLevels 9 MinCoarseRows 10 ZeroGuess 1 Cycle v
[OGL LOG][Proc: 0]p: init_precond: 1121.331 [ms]
[OGL LOG][StoppingCriterion.H:239] Creating stopping criterion with minIter 41 frequency 1
[OGL LOG][Proc: 0]p: generate_solver: 0.01 [ms]
[OGL LOG][Proc: 0]p: solve: 878.506 [ms]
[OGL LOG][Proc: 0]p: copy_x_back: 24.748 [ms]
[OGL LOG][lduLduBase.H:330] 
Statistics:
	Time per iteration: 20916 [mu s]
	Time per residual norm calculation: 194.000000 [mu s]
	Time per iteration and DOF: 0.829061 [ns]
	Retrieve results bandwidth 2.040000 [GByte/s]
[OGL LOG][Proc: 0]p: solve_multi_gpu: 2070.562 [ms]
MultigridcudaGKOCG:  Solving for p, Initial residual = 0.4104832151612828, Final residual = 0.001893800785528511, No Iterations 42
time step continuity errors : sum local = 0.003272760440240315, global = 0.0004161527738773209, cumulative = -0.002390069671915311
smoothSolver:  Solving for nuTilda, Initial residual = 0.02561328012619059, Final residual = 0.001969288387594792, No Iterations 3
ExecutionTime = 929.27 s  ClockTime = 932 s

Time = 20

velocityDampingConstraint velocityDamping damped 1 (0%) of cells, with max limit 300
smoothSolver:  Solving for Ux, Initial residual = 0.0150943458028361, Final residual = 0.001257858624861866, No Iterations 4
smoothSolver:  Solving for Uy, Initial residual = 0.03278768067589462, Final residual = 0.002961284181343533, No Iterations 4
smoothSolver:  Solving for Uz, Initial residual = 0.03266715774188769, Final residual = 0.002852325020797877, No Iterations 4
[OGL LOG][Proc: 0]: global_index_init: 0.017 [ms]
[OGL LOG][Proc: 0]p_local_coeffs: call_update: 0 [ms]
[OGL LOG][Proc: 0]p_non_local_coeffs: call_update: 0 [ms]
[OGL LOG][Proc: 0]p: update_local_matrix_data: 243.118 [ms]
[OGL LOG][Proc: 0]p: update_non_local_matrix_data: 0.868 [ms]
[OGL LOG][Proc: 0]p_matrix: call_update: 3.819 [ms]
[OGL LOG][Proc: 0]p_rhs: call_update: 14.973 [ms]
[OGL LOG][Preconditioner.H:346] Generate preconditioner Multigrid MaxLevels 9 MinCoarseRows 10 ZeroGuess 1 Cycle v
[OGL LOG][Proc: 0]p: init_precond: 1133.158 [ms]
[OGL LOG][StoppingCriterion.H:239] Creating stopping criterion with minIter 25 frequency 1
[OGL LOG][Proc: 0]p: generate_solver: 0.01 [ms]
[OGL LOG][Proc: 0]p: solve: 1300.264 [ms]
[OGL LOG][Proc: 0]p: copy_x_back: 25.188 [ms]
[OGL LOG][lduLduBase.H:330] 
Statistics:
	Time per iteration: 18313 [mu s]
	Time per residual norm calculation: 188.000000 [mu s]
	Time per iteration and DOF: 0.725884 [ns]
	Retrieve results bandwidth 2.005000 [GByte/s]
[OGL LOG][Proc: 0]p: solve_multi_gpu: 2504.344 [ms]
MultigridcudaGKOCG:  Solving for p, Initial residual = 0.3358119709564806, Final residual = 0.003007803546830822, No Iterations 71
time step continuity errors : sum local = 0.00540101818722267, global = 0.0001588211160684532, cumulative = -0.002231248555846858
smoothSolver:  Solving for nuTilda, Initial residual = 0.02102163954134664, Final residual = 0.002048061751865209, No Iterations 3
ExecutionTime = 961.24 s  ClockTime = 964 s

Time = 21

velocityDampingConstraint velocityDamping damped 16 (0%) of cells, with max limit 300
smoothSolver:  Solving for Ux, Initial residual = 0.0121668761289979, Final residual = 0.001010483299909452, No Iterations 4
smoothSolver:  Solving for Uy, Initial residual = 0.02541709591200824, Final residual = 0.002244222412826252, No Iterations 4
smoothSolver:  Solving for Uz, Initial residual = 0.02671863195780089, Final residual = 0.002231770886842037, No Iterations 4
[OGL LOG][Proc: 0]: global_index_init: 0.023 [ms]
[OGL LOG][Proc: 0]p_local_coeffs: call_update: 0 [ms]
[OGL LOG][Proc: 0]p_non_local_coeffs: call_update: 0 [ms]
[OGL LOG][Proc: 0]p: update_local_matrix_data: 243.004 [ms]
[OGL LOG][Proc: 0]p: update_non_local_matrix_data: 0.796 [ms]
[OGL LOG][Proc: 0]p_matrix: call_update: 3.868 [ms]
[OGL LOG][Proc: 0]p_rhs: call_update: 15.406 [ms]
[OGL LOG][Preconditioner.H:346] Generate preconditioner Multigrid MaxLevels 9 MinCoarseRows 10 ZeroGuess 1 Cycle v
[OGL LOG][Proc: 0]p: init_precond: 1129.081 [ms]
[OGL LOG][StoppingCriterion.H:239] Creating stopping criterion with minIter 42 frequency 1
[OGL LOG][Proc: 0]p: generate_solver: 0.008999999999999999 [ms]
[OGL LOG][Proc: 0]p: solve: 1168.34 [ms]
[OGL LOG][Proc: 0]p: copy_x_back: 25.214 [ms]
[OGL LOG][lduLduBase.H:330] 
Statistics:
	Time per iteration: 18844 [mu s]
	Time per residual norm calculation: 178.000000 [mu s]
	Time per iteration and DOF: 0.746932 [ns]
	Retrieve results bandwidth 2.003000 [GByte/s]
[OGL LOG][Proc: 0]p: solve_multi_gpu: 2368.958 [ms]
MultigridcudaGKOCG:  Solving for p, Initial residual = 0.2898473793910962, Final residual = 0.002642561534589583, No Iterations 62
time step continuity errors : sum local = 0.00462179650793472, global = 0.0002202703537185817, cumulative = -0.002010978202128277
smoothSolver:  Solving for nuTilda, Initial residual = 0.02891196028199417, Final residual = 0.001900652876558914, No Iterations 3
ExecutionTime = 993.13 s  ClockTime = 996 s

Time = 22

velocityDampingConstraint velocityDamping damped 0 (0%) of cells, with max limit 300
smoothSolver:  Solving for Ux, Initial residual = 0.009860385533280704, Final residual = 0.0008183860466525205, No Iterations 4
smoothSolver:  Solving for Uy, Initial residual = 0.0244142838322111, Final residual = 0.001994231235412717, No Iterations 4
smoothSolver:  Solving for Uz, Initial residual = 0.02711679128053154, Final residual = 0.002197289409681184, No Iterations 4
[OGL LOG][Proc: 0]: global_index_init: 0.016 [ms]
[OGL LOG][Proc: 0]p_local_coeffs: call_update: 0 [ms]
[OGL LOG][Proc: 0]p_non_local_coeffs: call_update: 0 [ms]
[OGL LOG][Proc: 0]p: update_local_matrix_data: 243.899 [ms]
[OGL LOG][Proc: 0]p: update_non_local_matrix_data: 0.9 [ms]
[OGL LOG][Proc: 0]p_matrix: call_update: 3.82 [ms]
[OGL LOG][Proc: 0]p_rhs: call_update: 15.443 [ms]
[OGL LOG][Preconditioner.H:346] Generate preconditioner Multigrid MaxLevels 9 MinCoarseRows 10 ZeroGuess 1 Cycle v
[OGL LOG][Proc: 0]p: init_precond: 1128.882 [ms]
[OGL LOG][StoppingCriterion.H:239] Creating stopping criterion with minIter 37 frequency 1
[OGL LOG][Proc: 0]p: generate_solver: 0.008999999999999999 [ms]
[OGL LOG][Proc: 0]p: solve: 823.857 [ms]
[OGL LOG][Proc: 0]p: copy_x_back: 24.921 [ms]
[OGL LOG][lduLduBase.H:330] 
Statistics:
	Time per iteration: 21680 [mu s]
	Time per residual norm calculation: 193.000000 [mu s]
	Time per iteration and DOF: 0.859344 [ns]
	Retrieve results bandwidth 2.026000 [GByte/s]
[OGL LOG][Proc: 0]p: solve_multi_gpu: 2023.807 [ms]
MultigridcudaGKOCG:  Solving for p, Initial residual = 0.2621278248202684, Final residual = 0.002590871528261975, No Iterations 38
time step continuity errors : sum local = 0.004773341854895074, global = -0.0008558066648366598, cumulative = -0.002866784866964937
smoothSolver:  Solving for nuTilda, Initial residual = 0.02000574212330986, Final residual = 0.001987793480354177, No Iterations 3
ExecutionTime = 1024.74 s  ClockTime = 1028 s

Time = 23

velocityDampingConstraint velocityDamping damped 0 (0%) of cells, with max limit 300
smoothSolver:  Solving for Ux, Initial residual = 0.009415755639363999, Final residual = 0.0007382829403445853, No Iterations 4
smoothSolver:  Solving for Uy, Initial residual = 0.02462892798240214, Final residual = 0.002071224123263316, No Iterations 4
smoothSolver:  Solving for Uz, Initial residual = 0.0263618578344741, Final residual = 0.002191478376553134, No Iterations 4
[OGL LOG][Proc: 0]: global_index_init: 0.018 [ms]
[OGL LOG][Proc: 0]p_local_coeffs: call_update: 0 [ms]
[OGL LOG][Proc: 0]p_non_local_coeffs: call_update: 0 [ms]
[OGL LOG][Proc: 0]p: update_local_matrix_data: 244.042 [ms]
[OGL LOG][Proc: 0]p: update_non_local_matrix_data: 0.878 [ms]
[OGL LOG][Proc: 0]p_matrix: call_update: 3.991 [ms]
[OGL LOG][Proc: 0]p_rhs: call_update: 15.114 [ms]
[OGL LOG][Preconditioner.H:346] Generate preconditioner Multigrid MaxLevels 9 MinCoarseRows 10 ZeroGuess 1 Cycle v
[OGL LOG][Proc: 0]p: init_precond: 1136.031 [ms]
[OGL LOG][StoppingCriterion.H:239] Creating stopping criterion with minIter 22 frequency 1
[OGL LOG][Proc: 0]p: generate_solver: 0.008999999999999999 [ms]
[OGL LOG][Proc: 0]p: solve: 1287.294 [ms]
[OGL LOG][Proc: 0]p: copy_x_back: 25.214 [ms]
[OGL LOG][lduLduBase.H:330] 
Statistics:
	Time per iteration: 18389 [mu s]
	Time per residual norm calculation: 175.000000 [mu s]
	Time per iteration and DOF: 0.728897 [ns]
	Retrieve results bandwidth 2.003000 [GByte/s]
[OGL LOG][Proc: 0]p: solve_multi_gpu: 2494.694 [ms]
MultigridcudaGKOCG:  Solving for p, Initial residual = 0.2276743361115569, Final residual = 0.002184000334822296, No Iterations 70
time step continuity errors : sum local = 0.00411805435992614, global = -0.0001152618531883645, cumulative = -0.002982046720153301
smoothSolver:  Solving for nuTilda, Initial residual = 0.0317562082860347, Final residual = 0.001824305718389235, No Iterations 3
ExecutionTime = 1056.88 s  ClockTime = 1060 s

Time = 24

velocityDampingConstraint velocityDamping damped 0 (0%) of cells, with max limit 300
smoothSolver:  Solving for Ux, Initial residual = 0.008672136355396081, Final residual = 0.0007517501901298395, No Iterations 4
smoothSolver:  Solving for Uy, Initial residual = 0.02336913716930849, Final residual = 0.001997363147799268, No Iterations 4
smoothSolver:  Solving for Uz, Initial residual = 0.02381949541029758, Final residual = 0.002023469173278282, No Iterations 4
[OGL LOG][Proc: 0]: global_index_init: 0.019 [ms]
[OGL LOG][Proc: 0]p_local_coeffs: call_update: 0 [ms]
[OGL LOG][Proc: 0]p_non_local_coeffs: call_update: 0 [ms]
[OGL LOG][Proc: 0]p: update_local_matrix_data: 243.452 [ms]
[OGL LOG][Proc: 0]p: update_non_local_matrix_data: 0.849 [ms]
[OGL LOG][Proc: 0]p_matrix: call_update: 3.758 [ms]
[OGL LOG][Proc: 0]p_rhs: call_update: 15.291 [ms]
[OGL LOG][Preconditioner.H:346] Generate preconditioner Multigrid MaxLevels 9 MinCoarseRows 10 ZeroGuess 1 Cycle v
[OGL LOG][Proc: 0]p: init_precond: 1124.702 [ms]
[OGL LOG][StoppingCriterion.H:239] Creating stopping criterion with minIter 42 frequency 1
[OGL LOG][Proc: 0]p: generate_solver: 0.008999999999999999 [ms]
[OGL LOG][Proc: 0]p: solve: 896.516 [ms]
[OGL LOG][Proc: 0]p: copy_x_back: 25.053 [ms]
[OGL LOG][lduLduBase.H:330] 
Statistics:
	Time per iteration: 20849 [mu s]
	Time per residual norm calculation: 198.000000 [mu s]
	Time per iteration and DOF: 0.826405 [ns]
	Retrieve results bandwidth 2.016000 [GByte/s]
[OGL LOG][Proc: 0]p: solve_multi_gpu: 2130.033 [ms]
MultigridcudaGKOCG:  Solving for p, Initial residual = 0.3022438917700258, Final residual = 0.001672156918097929, No Iterations 43
time step continuity errors : sum local = 0.002123278512922423, global = -0.0004089252569257539, cumulative = -0.003390971977079055
smoothSolver:  Solving for nuTilda, Initial residual = 0.01876673198532838, Final residual = 0.001089969582973881, No Iterations 4
ExecutionTime = 1088.68 s  ClockTime = 1092 s

Time = 25

velocityDampingConstraint velocityDamping damped 4 (0%) of cells, with max limit 300
smoothSolver:  Solving for Ux, Initial residual = 0.008735650385779645, Final residual = 0.0007864311068022505, No Iterations 4
smoothSolver:  Solving for Uy, Initial residual = 0.02293947699125137, Final residual = 0.002026524252870965, No Iterations 4
smoothSolver:  Solving for Uz, Initial residual = 0.02325391075760454, Final residual = 0.002020223301707146, No Iterations 4
[OGL LOG][Proc: 0]: global_index_init: 0.016 [ms]
[OGL LOG][Proc: 0]p_local_coeffs: call_update: 0 [ms]
[OGL LOG][Proc: 0]p_non_local_coeffs: call_update: 0 [ms]
[OGL LOG][Proc: 0]p: update_local_matrix_data: 254.243 [ms]
[OGL LOG][Proc: 0]p: update_non_local_matrix_data: 0.821 [ms]
[OGL LOG][Proc: 0]p_matrix: call_update: 7.14 [ms]
[OGL LOG][Proc: 0]p_rhs: call_update: 14.892 [ms]
[OGL LOG][Preconditioner.H:346] Generate preconditioner Multigrid MaxLevels 9 MinCoarseRows 10 ZeroGuess 1 Cycle v
[OGL LOG][Proc: 0]p: init_precond: 1158.844 [ms]
[OGL LOG][StoppingCriterion.H:239] Creating stopping criterion with minIter 25 frequency 1
[OGL LOG][Proc: 0]p: generate_solver: 0.008999999999999999 [ms]
[OGL LOG][Proc: 0]p: solve: 1205.728 [ms]
[OGL LOG][Proc: 0]p: copy_x_back: 25.524 [ms]
[OGL LOG][lduLduBase.H:330] 
Statistics:
	Time per iteration: 18839 [mu s]
	Time per residual norm calculation: 173.000000 [mu s]
	Time per iteration and DOF: 0.746734 [ns]
	Retrieve results bandwidth 1.978000 [GByte/s]
[OGL LOG][Proc: 0]p: solve_multi_gpu: 2439.19 [ms]
MultigridcudaGKOCG:  Solving for p, Initial residual = 0.3048844876914975, Final residual = 0.002984128654061281, No Iterations 64
time step continuity errors : sum local = 0.003337815285754441, global = 0.0001601173382480976, cumulative = -0.003230854638830957
smoothSolver:  Solving for nuTilda, Initial residual = 0.03176239555882231, Final residual = 0.001745297387747098, No Iterations 3
ExecutionTime = 1120.67 s  ClockTime = 1124 s

Time = 26

velocityDampingConstraint velocityDamping damped 0 (0%) of cells, with max limit 300
smoothSolver:  Solving for Ux, Initial residual = 0.008523047645318136, Final residual = 0.0007566431503400152, No Iterations 4
smoothSolver:  Solving for Uy, Initial residual = 0.02082673275377295, Final residual = 0.001908064039280215, No Iterations 4
smoothSolver:  Solving for Uz, Initial residual = 0.02127434808698078, Final residual = 0.001876649885894861, No Iterations 4
[OGL LOG][Proc: 0]: global_index_init: 0.017 [ms]
[OGL LOG][Proc: 0]p_local_coeffs: call_update: 0 [ms]
[OGL LOG][Proc: 0]p_non_local_coeffs: call_update: 0 [ms]
[OGL LOG][Proc: 0]p: update_local_matrix_data: 243.718 [ms]
[OGL LOG][Proc: 0]p: update_non_local_matrix_data: 0.897 [ms]
[OGL LOG][Proc: 0]p_matrix: call_update: 3.962 [ms]
[OGL LOG][Proc: 0]p_rhs: call_update: 15.182 [ms]
[OGL LOG][Preconditioner.H:346] Generate preconditioner Multigrid MaxLevels 9 MinCoarseRows 10 ZeroGuess 1 Cycle v
[OGL LOG][Proc: 0]p: init_precond: 1121.748 [ms]
[OGL LOG][StoppingCriterion.H:239] Creating stopping criterion with minIter 38 frequency 1
[OGL LOG][Proc: 0]p: generate_solver: 0.008999999999999999 [ms]
[OGL LOG][Proc: 0]p: solve: 1235.736 [ms]
[OGL LOG][Proc: 0]p: copy_x_back: 25.033 [ms]
[OGL LOG][lduLduBase.H:330] 
Statistics:
	Time per iteration: 18723 [mu s]
	Time per residual norm calculation: 180.000000 [mu s]
	Time per iteration and DOF: 0.742136 [ns]
	Retrieve results bandwidth 2.017000 [GByte/s]
[OGL LOG][Proc: 0]p: solve_multi_gpu: 2428.678 [ms]
MultigridcudaGKOCG:  Solving for p, Initial residual = 0.3177082947902072, Final residual = 0.003023514676866632, No Iterations 66
time step continuity errors : sum local = 0.002839409916310384, global = 0.0001159140524567711, cumulative = -0.003114940586374186
smoothSolver:  Solving for nuTilda, Initial residual = 0.01741234385334195, Final residual = 0.001050999852224101, No Iterations 4
ExecutionTime = 1152.88 s  ClockTime = 1157 s

Time = 27

velocityDampingConstraint velocityDamping damped 0 (0%) of cells, with max limit 300
smoothSolver:  Solving for Ux, Initial residual = 0.007447143271535049, Final residual = 0.0006503949621184844, No Iterations 4
smoothSolver:  Solving for Uy, Initial residual = 0.0188491255435952, Final residual = 0.001723103572083427, No Iterations 4
smoothSolver:  Solving for Uz, Initial residual = 0.01946916190074223, Final residual = 0.00169817075692582, No Iterations 4
[OGL LOG][Proc: 0]: global_index_init: 0.015 [ms]
[OGL LOG][Proc: 0]p_local_coeffs: call_update: 0 [ms]
[OGL LOG][Proc: 0]p_non_local_coeffs: call_update: 0 [ms]
[OGL LOG][Proc: 0]p: update_local_matrix_data: 244.174 [ms]
[OGL LOG][Proc: 0]p: update_non_local_matrix_data: 0.764 [ms]
[OGL LOG][Proc: 0]p_matrix: call_update: 3.989 [ms]
[OGL LOG][Proc: 0]p_rhs: call_update: 15.019 [ms]
[OGL LOG][Preconditioner.H:346] Generate preconditioner Multigrid MaxLevels 9 MinCoarseRows 10 ZeroGuess 1 Cycle v
[OGL LOG][Proc: 0]p: init_precond: 1135.513 [ms]
[OGL LOG][StoppingCriterion.H:239] Creating stopping criterion with minIter 39 frequency 1
[OGL LOG][Proc: 0]p: generate_solver: 0.008999999999999999 [ms]
[OGL LOG][Proc: 0]p: solve: 852.2089999999999 [ms]
[OGL LOG][Proc: 0]p: copy_x_back: 25.106 [ms]
[OGL LOG][lduLduBase.H:330] 
Statistics:
	Time per iteration: 21305 [mu s]
	Time per residual norm calculation: 194.000000 [mu s]
	Time per iteration and DOF: 0.844480 [ns]
	Retrieve results bandwidth 2.011000 [GByte/s]
[OGL LOG][Proc: 0]p: solve_multi_gpu: 2058.734 [ms]
MultigridcudaGKOCG:  Solving for p, Initial residual = 0.2021672089511619, Final residual = 0.00110144186481177, No Iterations 40
time step continuity errors : sum local = 0.001438615493131433, global = 0.0002938325235388069, cumulative = -0.002821108062835379
smoothSolver:  Solving for nuTilda, Initial residual = 0.0306894512816997, Final residual = 0.001674278070648333, No Iterations 3
ExecutionTime = 1184.58 s  ClockTime = 1188 s

Time = 28

velocityDampingConstraint velocityDamping damped 0 (0%) of cells, with max limit 300
smoothSolver:  Solving for Ux, Initial residual = 0.006790688921383879, Final residual = 0.000588043219465421, No Iterations 4
smoothSolver:  Solving for Uy, Initial residual = 0.01868559519932951, Final residual = 0.001676003864487154, No Iterations 4
smoothSolver:  Solving for Uz, Initial residual = 0.01938011114368546, Final residual = 0.001678771345125487, No Iterations 4
[OGL LOG][Proc: 0]: global_index_init: 0.015 [ms]
[OGL LOG][Proc: 0]p_local_coeffs: call_update: 0 [ms]
[OGL LOG][Proc: 0]p_non_local_coeffs: call_update: 0 [ms]
[OGL LOG][Proc: 0]p: update_local_matrix_data: 246.202 [ms]
[OGL LOG][Proc: 0]p: update_non_local_matrix_data: 0.874 [ms]
[OGL LOG][Proc: 0]p_matrix: call_update: 3.733 [ms]
[OGL LOG][Proc: 0]p_rhs: call_update: 15.246 [ms]
[OGL LOG][Preconditioner.H:346] Generate preconditioner Multigrid MaxLevels 9 MinCoarseRows 10 ZeroGuess 1 Cycle v
[OGL LOG][Proc: 0]p: init_precond: 1130.7 [ms]
[OGL LOG][StoppingCriterion.H:239] Creating stopping criterion with minIter 24 frequency 1
[OGL LOG][Proc: 0]p: generate_solver: 0.01 [ms]
[OGL LOG][Proc: 0]p: solve: 781.664 [ms]
[OGL LOG][Proc: 0]p: copy_x_back: 25.019 [ms]
[OGL LOG][lduLduBase.H:330] 
Statistics:
	Time per iteration: 22333 [mu s]
	Time per residual norm calculation: 176.000000 [mu s]
	Time per iteration and DOF: 0.885227 [ns]
	Retrieve results bandwidth 2.018000 [GByte/s]
[OGL LOG][Proc: 0]p: solve_multi_gpu: 1983.304 [ms]
MultigridcudaGKOCG:  Solving for p, Initial residual = 0.191061937642155, Final residual = 0.001870419508546558, No Iterations 35
time step continuity errors : sum local = 0.00232188217219088, global = -0.0003591162880117253, cumulative = -0.003180224350847105
smoothSolver:  Solving for nuTilda, Initial residual = 0.01608153282799012, Final residual = 0.001007194083809384, No Iterations 4
ExecutionTime = 1216.23 s  ClockTime = 1220 s

Time = 29

velocityDampingConstraint velocityDamping damped 0 (0%) of cells, with max limit 300
smoothSolver:  Solving for Ux, Initial residual = 0.006686321048193554, Final residual = 0.0005739277109576309, No Iterations 4
smoothSolver:  Solving for Uy, Initial residual = 0.01871390643354924, Final residual = 0.001679601004596798, No Iterations 4
smoothSolver:  Solving for Uz, Initial residual = 0.01923803964524072, Final residual = 0.001665392191859855, No Iterations 4
[OGL LOG][Proc: 0]: global_index_init: 0.024 [ms]
[OGL LOG][Proc: 0]p_local_coeffs: call_update: 0 [ms]
[OGL LOG][Proc: 0]p_non_local_coeffs: call_update: 0 [ms]
[OGL LOG][Proc: 0]p: update_local_matrix_data: 244.159 [ms]
[OGL LOG][Proc: 0]p: update_non_local_matrix_data: 0.875 [ms]
[OGL LOG][Proc: 0]p_matrix: call_update: 3.749 [ms]
[OGL LOG][Proc: 0]p_rhs: call_update: 15.759 [ms]
[OGL LOG][Preconditioner.H:346] Generate preconditioner Multigrid MaxLevels 9 MinCoarseRows 10 ZeroGuess 1 Cycle v
[OGL LOG][Proc: 0]p: init_precond: 1138.49 [ms]
[OGL LOG][StoppingCriterion.H:239] Creating stopping criterion with minIter 21 frequency 1
[OGL LOG][Proc: 0]p: generate_solver: 0.008999999999999999 [ms]
[OGL LOG][Proc: 0]p: solve: 1203.444 [ms]
[OGL LOG][Proc: 0]p: copy_x_back: 25.205 [ms]
[OGL LOG][lduLduBase.H:330] 
Statistics:
	Time per iteration: 18803 [mu s]
	Time per residual norm calculation: 174.000000 [mu s]
	Time per iteration and DOF: 0.745307 [ns]
	Retrieve results bandwidth 2.003000 [GByte/s]
[OGL LOG][Proc: 0]p: solve_multi_gpu: 2413.626 [ms]
MultigridcudaGKOCG:  Solving for p, Initial residual = 0.1766315698402676, Final residual = 0.001634592696310855, No Iterations 64
time step continuity errors : sum local = 0.001995299198973032, global = -7.917816850144014e-05, cumulative = -0.003259402519348545
smoothSolver:  Solving for nuTilda, Initial residual = 0.02862308540522395, Final residual = 0.001603751279500924, No Iterations 3
ExecutionTime = 1248.25 s  ClockTime = 1252 s

Time = 30

velocityDampingConstraint velocityDamping damped 0 (0%) of cells, with max limit 300
smoothSolver:  Solving for Ux, Initial residual = 0.00643958674588858, Final residual = 0.0005702212460508942, No Iterations 4
smoothSolver:  Solving for Uy, Initial residual = 0.01835827128182689, Final residual = 0.001656480697821463, No Iterations 4
smoothSolver:  Solving for Uz, Initial residual = 0.01854791713263079, Final residual = 0.001610622561964537, No Iterations 4
[OGL LOG][Proc: 0]: global_index_init: 0.016 [ms]
[OGL LOG][Proc: 0]p_local_coeffs: call_update: 0 [ms]
[OGL LOG][Proc: 0]p_non_local_coeffs: call_update: 0 [ms]
[OGL LOG][Proc: 0]p: update_local_matrix_data: 243.992 [ms]
[OGL LOG][Proc: 0]p: update_non_local_matrix_data: 0.8179999999999999 [ms]
[OGL LOG][Proc: 0]p_matrix: call_update: 4.06 [ms]
[OGL LOG][Proc: 0]p_rhs: call_update: 14.971 [ms]
[OGL LOG][Preconditioner.H:346] Generate preconditioner Multigrid MaxLevels 9 MinCoarseRows 10 ZeroGuess 1 Cycle v
[OGL LOG][Proc: 0]p: init_precond: 1135.581 [ms]
[OGL LOG][StoppingCriterion.H:239] Creating stopping criterion with minIter 38 frequency 1
[OGL LOG][Proc: 0]p: generate_solver: 0.01 [ms]
[OGL LOG][Proc: 0]p: solve: 838.4880000000001 [ms]
[OGL LOG][Proc: 0]p: copy_x_back: 25.039 [ms]
[OGL LOG][lduLduBase.H:330] 
Statistics:
	Time per iteration: 21499 [mu s]
	Time per residual norm calculation: 192.000000 [mu s]
	Time per iteration and DOF: 0.852170 [ns]
	Retrieve results bandwidth 2.017000 [GByte/s]
[OGL LOG][Proc: 0]p: solve_multi_gpu: 2045.126 [ms]
MultigridcudaGKOCG:  Solving for p, Initial residual = 0.2693461146986001, Final residual = 0.001257515532951409, No Iterations 39
time step continuity errors : sum local = 0.0009025798399643161, global = -0.000168355217861002, cumulative = -0.003427757737209547
smoothSolver:  Solving for nuTilda, Initial residual = 0.01489952745701279, Final residual = 0.0009630019167701583, No Iterations 4
ExecutionTime = 1279.93 s  ClockTime = 1284 s

Time = 31

velocityDampingConstraint velocityDamping damped 0 (0%) of cells, with max limit 300
smoothSolver:  Solving for Ux, Initial residual = 0.006375891448576507, Final residual = 0.0005643334619331018, No Iterations 4
smoothSolver:  Solving for Uy, Initial residual = 0.01767600955934492, Final residual = 0.001611772525840212, No Iterations 4
smoothSolver:  Solving for Uz, Initial residual = 0.01788711106501125, Final residual = 0.001576675861724806, No Iterations 4
[OGL LOG][Proc: 0]: global_index_init: 0.016 [ms]
[OGL LOG][Proc: 0]p_local_coeffs: call_update: 0 [ms]
[OGL LOG][Proc: 0]p_non_local_coeffs: call_update: 0 [ms]
[OGL LOG][Proc: 0]p: update_local_matrix_data: 243.969 [ms]
[OGL LOG][Proc: 0]p: update_non_local_matrix_data: 0.875 [ms]
[OGL LOG][Proc: 0]p_matrix: call_update: 3.921 [ms]
[OGL LOG][Proc: 0]p_rhs: call_update: 14.888 [ms]
[OGL LOG][Preconditioner.H:346] Generate preconditioner Multigrid MaxLevels 9 MinCoarseRows 10 ZeroGuess 1 Cycle v
[OGL LOG][Proc: 0]p: init_precond: 1137.254 [ms]
[OGL LOG][StoppingCriterion.H:239] Creating stopping criterion with minIter 23 frequency 1
[OGL LOG][Proc: 0]p: generate_solver: 0.008999999999999999 [ms]
[OGL LOG][Proc: 0]p: solve: 1102.881 [ms]
[OGL LOG][Proc: 0]p: copy_x_back: 25.016 [ms]
[OGL LOG][lduLduBase.H:330] 
Statistics:
	Time per iteration: 19348 [mu s]
	Time per residual norm calculation: 177.000000 [mu s]
	Time per iteration and DOF: 0.766909 [ns]
	Retrieve results bandwidth 2.018000 [GByte/s]
[OGL LOG][Proc: 0]p: solve_multi_gpu: 2311.046 [ms]
MultigridcudaGKOCG:  Solving for p, Initial residual = 0.259104944242552, Final residual = 0.00245573345804022, No Iterations 57
time step continuity errors : sum local = 0.001656001235795686, global = 0.0001067662063838396, cumulative = -0.003320991530825707
smoothSolver:  Solving for nuTilda, Initial residual = 0.02667661077485342, Final residual = 0.001539997227370888, No Iterations 3
ExecutionTime = 1311.87 s  ClockTime = 1316 s

Time = 32

velocityDampingConstraint velocityDamping damped 0 (0%) of cells, with max limit 300
smoothSolver:  Solving for Ux, Initial residual = 0.006207347115388806, Final residual = 0.0005449362471115972, No Iterations 4
smoothSolver:  Solving for Uy, Initial residual = 0.01674894901707737, Final residual = 0.00153469083902039, No Iterations 4
smoothSolver:  Solving for Uz, Initial residual = 0.01690219304084941, Final residual = 0.001517821221046961, No Iterations 4
[OGL LOG][Proc: 0]: global_index_init: 0.023 [ms]
[OGL LOG][Proc: 0]p_local_coeffs: call_update: 0 [ms]
[OGL LOG][Proc: 0]p_non_local_coeffs: call_update: 0 [ms]
[OGL LOG][Proc: 0]p: update_local_matrix_data: 243.637 [ms]
[OGL LOG][Proc: 0]p: update_non_local_matrix_data: 0.868 [ms]
[OGL LOG][Proc: 0]p_matrix: call_update: 4.135 [ms]
[OGL LOG][Proc: 0]p_rhs: call_update: 14.9 [ms]
[OGL LOG][Preconditioner.H:346] Generate preconditioner Multigrid MaxLevels 9 MinCoarseRows 10 ZeroGuess 1 Cycle v
[OGL LOG][Proc: 0]p: init_precond: 1143.936 [ms]
[OGL LOG][StoppingCriterion.H:239] Creating stopping criterion with minIter 34 frequency 1
[OGL LOG][Proc: 0]p: generate_solver: 0.008999999999999999 [ms]
[OGL LOG][Proc: 0]p: solve: 1096.258 [ms]
[OGL LOG][Proc: 0]p: copy_x_back: 25.4 [ms]
[OGL LOG][lduLduBase.H:330] 
Statistics:
	Time per iteration: 19232 [mu s]
	Time per residual norm calculation: 335.000000 [mu s]
	Time per iteration and DOF: 0.762311 [ns]
	Retrieve results bandwidth 1.988000 [GByte/s]
[OGL LOG][Proc: 0]p: solve_multi_gpu: 2311.964 [ms]
MultigridcudaGKOCG:  Solving for p, Initial residual = 0.2101691352498599, Final residual = 0.002087938150399086, No Iterations 57
time step continuity errors : sum local = 0.001590858006157298, global = -1.883130086414119e-05, cumulative = -0.003339822831689849
smoothSolver:  Solving for nuTilda, Initial residual = 0.01391094151531282, Final residual = 0.0009233447397461214, No Iterations 4
ExecutionTime = 1343.92 s  ClockTime = 1348 s

Time = 33

velocityDampingConstraint velocityDamping damped 0 (0%) of cells, with max limit 300
smoothSolver:  Solving for Ux, Initial residual = 0.005822117241726986, Final residual = 0.000509318829502289, No Iterations 4
smoothSolver:  Solving for Uy, Initial residual = 0.01615690920479043, Final residual = 0.001479176025787951, No Iterations 4
smoothSolver:  Solving for Uz, Initial residual = 0.01631292203434043, Final residual = 0.001471526205814558, No Iterations 4
[OGL LOG][Proc: 0]: global_index_init: 0.017 [ms]
[OGL LOG][Proc: 0]p_local_coeffs: call_update: 0 [ms]
[OGL LOG][Proc: 0]p_non_local_coeffs: call_update: 0 [ms]
[OGL LOG][Proc: 0]p: update_local_matrix_data: 243.387 [ms]
[OGL LOG][Proc: 0]p: update_non_local_matrix_data: 0.802 [ms]
[OGL LOG][Proc: 0]p_matrix: call_update: 4.194 [ms]
[OGL LOG][Proc: 0]p_rhs: call_update: 14.88 [ms]
[OGL LOG][Preconditioner.H:346] Generate preconditioner Multigrid MaxLevels 9 MinCoarseRows 10 ZeroGuess 1 Cycle v
[OGL LOG][Proc: 0]p: init_precond: 1128.998 [ms]
[OGL LOG][StoppingCriterion.H:239] Creating stopping criterion with minIter 34 frequency 1
[OGL LOG][Proc: 0]p: generate_solver: 0.008999999999999999 [ms]
[OGL LOG][Proc: 0]p: solve: 780.501 [ms]
[OGL LOG][Proc: 0]p: copy_x_back: 25.164 [ms]
[OGL LOG][lduLduBase.H:330] 
Statistics:
	Time per iteration: 22300 [mu s]
	Time per residual norm calculation: 192.000000 [mu s]
	Time per iteration and DOF: 0.883919 [ns]
	Retrieve results bandwidth 2.007000 [GByte/s]
[OGL LOG][Proc: 0]p: solve_multi_gpu: 1980.716 [ms]
MultigridcudaGKOCG:  Solving for p, Initial residual = 0.1464166630763023, Final residual = 0.0005835187439034346, No Iterations 35
time step continuity errors : sum local = 0.0005804628797742221, global = 9.515254201136404e-05, cumulative = -0.003244670289678485
smoothSolver:  Solving for nuTilda, Initial residual = 0.02498184388528427, Final residual = 0.001481563229194223, No Iterations 3
ExecutionTime = 1375.45 s  ClockTime = 1380 s

Time = 34

velocityDampingConstraint velocityDamping damped 0 (0%) of cells, with max limit 300
smoothSolver:  Solving for Ux, Initial residual = 0.005489855988934696, Final residual = 0.0004834659952465178, No Iterations 4
smoothSolver:  Solving for Uy, Initial residual = 0.01608128848708578, Final residual = 0.001473447371765926, No Iterations 4
smoothSolver:  Solving for Uz, Initial residual = 0.01628848510605747, Final residual = 0.001472071758157617, No Iterations 4
[OGL LOG][Proc: 0]: global_index_init: 0.016 [ms]
[OGL LOG][Proc: 0]p_local_coeffs: call_update: 0 [ms]
[OGL LOG][Proc: 0]p_non_local_coeffs: call_update: 0 [ms]
[OGL LOG][Proc: 0]p: update_local_matrix_data: 243.931 [ms]
[OGL LOG][Proc: 0]p: update_non_local_matrix_data: 0.879 [ms]
[OGL LOG][Proc: 0]p_matrix: call_update: 3.897 [ms]
[OGL LOG][Proc: 0]p_rhs: call_update: 15.091 [ms]
[...]
ExecutionTime = 3178.82 s  ClockTime = 3187 s

Time = 91

velocityDampingConstraint velocityDamping damped 0 (0%) of cells, with max limit 300
smoothSolver:  Solving for Ux, Initial residual = 0.00276754077528293, Final residual = 0.0002713907945942743, No Iterations 4
smoothSolver:  Solving for Uy, Initial residual = 0.01177404147807436, Final residual = 0.001167146263192666, No Iterations 4
smoothSolver:  Solving for Uz, Initial residual = 0.01299954265344429, Final residual = 0.001281618446935185, No Iterations 4
[OGL LOG][Proc: 0]: global_index_init: 0.015 [ms]
[OGL LOG][Proc: 0]p_local_coeffs: call_update: 0 [ms]
[OGL LOG][Proc: 0]p_non_local_coeffs: call_update: 0 [ms]
[OGL LOG][Proc: 0]p: update_local_matrix_data: 243.404 [ms]
[OGL LOG][Proc: 0]p: update_non_local_matrix_data: 0.911 [ms]
[OGL LOG][Proc: 0]p_matrix: call_update: 3.642 [ms]
[OGL LOG][Proc: 0]p_rhs: call_update: 15.475 [ms]
[OGL LOG][Preconditioner.H:346] Generate preconditioner Multigrid MaxLevels 9 MinCoarseRows 10 ZeroGuess 1 Cycle v
[OGL LOG][Proc: 0]p: init_precond: 1122.669 [ms]
[OGL LOG][StoppingCriterion.H:239] Creating stopping criterion with minIter 24 frequency 1
[OGL LOG][Proc: 0]p: generate_solver: 0.008999999999999999 [ms]
[OGL LOG][Proc: 0]p: solve: 639.088 [ms]
[OGL LOG][Proc: 0]p: copy_x_back: 25.195 [ms]
[OGL LOG][lduLduBase.H:330] 
Statistics:
	Time per iteration: 25563 [mu s]
	Time per residual norm calculation: 197.000000 [mu s]
	Time per iteration and DOF: 1.013257 [ns]
	Retrieve results bandwidth 2.004000 [GByte/s]
[OGL LOG][Proc: 0]p: solve_multi_gpu: 1833.358 [ms]
MultigridcudaGKOCG:  Solving for p, Initial residual = 0.0462095630748998, Final residual = 0.0002605660258957032, No Iterations 25
time step continuity errors : sum local = 0.0001841707763976451, global = 1.607015035710981e-05, cumulative = -0.003394248957850761
smoothSolver:  Solving for nuTilda, Initial residual = 0.009385225685681422, Final residual = 0.0008064280976948244, No Iterations 3
ExecutionTime = 3210.14 s  ClockTime = 3218 s

Time = 92

velocityDampingConstraint velocityDamping damped 0 (0%) of cells, with max limit 300
smoothSolver:  Solving for Ux, Initial residual = 0.002743374578677646, Final residual = 0.0002703722477845862, No Iterations 4
smoothSolver:  Solving for Uy, Initial residual = 0.01178269740852448, Final residual = 0.001168630420080575, No Iterations 4
smoothSolver:  Solving for Uz, Initial residual = 0.01299403280910797, Final residual = 0.001281450218078132, No Iterations 4
[OGL LOG][Proc: 0]: global_index_init: 0.015 [ms]
[OGL LOG][Proc: 0]p_local_coeffs: call_update: 0 [ms]
[OGL LOG][Proc: 0]p_non_local_coeffs: call_update: 0 [ms]
[OGL LOG][Proc: 0]p: update_local_matrix_data: 244.044 [ms]
[OGL LOG][Proc: 0]p: update_non_local_matrix_data: 0.898 [ms]
[OGL LOG][Proc: 0]p_matrix: call_update: 3.654 [ms]
[OGL LOG][Proc: 0]p_rhs: call_update: 15.08 [ms]
[OGL LOG][Preconditioner.H:346] Generate preconditioner Multigrid MaxLevels 9 MinCoarseRows 10 ZeroGuess 1 Cycle v
[OGL LOG][Proc: 0]p: init_precond: 1124.517 [ms]
[OGL LOG][StoppingCriterion.H:239] Creating stopping criterion with minIter 15 frequency 1
[OGL LOG][Proc: 0]p: generate_solver: 0.008999999999999999 [ms]
[OGL LOG][Proc: 0]p: solve: 1050.058 [ms]
[OGL LOG][Proc: 0]p: copy_x_back: 25.193 [ms]
[OGL LOG][lduLduBase.H:330] 
Statistics:
	Time per iteration: 19812 [mu s]
	Time per residual norm calculation: 172.000000 [mu s]
	Time per iteration and DOF: 0.785301 [ns]
	Retrieve results bandwidth 2.004000 [GByte/s]
[OGL LOG][Proc: 0]p: solve_multi_gpu: 2245.579 [ms]
MultigridcudaGKOCG:  Solving for p, Initial residual = 0.04577703811569207, Final residual = 0.0004314960136918375, No Iterations 53
time step continuity errors : sum local = 0.000304481645740574, global = 1.194672217958868e-05, cumulative = -0.003382302235671172
smoothSolver:  Solving for nuTilda, Initial residual = 0.006250444677190573, Final residual = 0.0004604098368473566, No Iterations 4
ExecutionTime = 3242.16 s  ClockTime = 3251 s

Time = 93

velocityDampingConstraint velocityDamping damped 0 (0%) of cells, with max limit 300
smoothSolver:  Solving for Ux, Initial residual = 0.002748488435809294, Final residual = 0.000269464068021565, No Iterations 4
smoothSolver:  Solving for Uy, Initial residual = 0.011799456394238, Final residual = 0.001170453176054007, No Iterations 4
smoothSolver:  Solving for Uz, Initial residual = 0.01296443286703022, Final residual = 0.001280097622431926, No Iterations 4
[OGL LOG][Proc: 0]: global_index_init: 0.02 [ms]
[OGL LOG][Proc: 0]p_local_coeffs: call_update: 0 [ms]
[OGL LOG][Proc: 0]p_non_local_coeffs: call_update: 0 [ms]
[OGL LOG][Proc: 0]p: update_local_matrix_data: 243.899 [ms]
[OGL LOG][Proc: 0]p: update_non_local_matrix_data: 0.868 [ms]
[OGL LOG][Proc: 0]p_matrix: call_update: 3.718 [ms]
[OGL LOG][Proc: 0]p_rhs: call_update: 15.297 [ms]
[OGL LOG][Preconditioner.H:346] Generate preconditioner Multigrid MaxLevels 9 MinCoarseRows 10 ZeroGuess 1 Cycle v
[OGL LOG][Proc: 0]p: init_precond: 1120.677 [ms]
[OGL LOG][StoppingCriterion.H:239] Creating stopping criterion with minIter 31 frequency 1
[OGL LOG][Proc: 0]p: generate_solver: 0.008999999999999999 [ms]
[OGL LOG][Proc: 0]p: solve: 879.8150000000001 [ms]
[OGL LOG][Proc: 0]p: copy_x_back: 25.148 [ms]
[OGL LOG][lduLduBase.H:330] 
Statistics:
	Time per iteration: 21458 [mu s]
	Time per residual norm calculation: 178.000000 [mu s]
	Time per iteration and DOF: 0.850545 [ns]
	Retrieve results bandwidth 2.008000 [GByte/s]
[OGL LOG][Proc: 0]p: solve_multi_gpu: 2084.991 [ms]
MultigridcudaGKOCG:  Solving for p, Initial residual = 0.04340872004738295, Final residual = 0.0004311702414554336, No Iterations 41
time step continuity errors : sum local = 0.0003164428146311594, global = 2.095628028156926e-05, cumulative = -0.003361345955389603
smoothSolver:  Solving for nuTilda, Initial residual = 0.009160974680082982, Final residual = 0.0008031119528399597, No Iterations 3
ExecutionTime = 3273.72 s  ClockTime = 3282 s

Time = 94

velocityDampingConstraint velocityDamping damped 0 (0%) of cells, with max limit 300
smoothSolver:  Solving for Ux, Initial residual = 0.002712498123947735, Final residual = 0.0002673771463874743, No Iterations 4
smoothSolver:  Solving for Uy, Initial residual = 0.01180797090272613, Final residual = 0.001172410395654011, No Iterations 4
smoothSolver:  Solving for Uz, Initial residual = 0.0129400297335886, Final residual = 0.001279606570299703, No Iterations 4
[OGL LOG][Proc: 0]: global_index_init: 0.015 [ms]
[OGL LOG][Proc: 0]p_local_coeffs: call_update: 0 [ms]
[OGL LOG][Proc: 0]p_non_local_coeffs: call_update: 0 [ms]
[OGL LOG][Proc: 0]p: update_local_matrix_data: 254.18 [ms]
[OGL LOG][Proc: 0]p: update_non_local_matrix_data: 0.858 [ms]
[OGL LOG][Proc: 0]p_matrix: call_update: 5.426 [ms]
[OGL LOG][Proc: 0]p_rhs: call_update: 14.902 [ms]
[OGL LOG][Preconditioner.H:346] Generate preconditioner Multigrid MaxLevels 9 MinCoarseRows 10 ZeroGuess 1 Cycle v
[OGL LOG][Proc: 0]p: init_precond: 1134.94 [ms]
[OGL LOG][StoppingCriterion.H:239] Creating stopping criterion with minIter 24 frequency 1
[OGL LOG][Proc: 0]p: generate_solver: 0.008999999999999999 [ms]
[OGL LOG][Proc: 0]p: solve: 658.298 [ms]
[OGL LOG][Proc: 0]p: copy_x_back: 25.18 [ms]
[OGL LOG][lduLduBase.H:330] 
Statistics:
	Time per iteration: 26331 [mu s]
	Time per residual norm calculation: 200.000000 [mu s]
	Time per iteration and DOF: 1.043699 [ns]
	Retrieve results bandwidth 2.005000 [GByte/s]
[OGL LOG][Proc: 0]p: solve_multi_gpu: 1865.878 [ms]
MultigridcudaGKOCG:  Solving for p, Initial residual = 0.04220545308825832, Final residual = 0.000236020091907272, No Iterations 25
time step continuity errors : sum local = 0.0001764278754638552, global = 3.010289516641583e-06, cumulative = -0.003358335665872961
smoothSolver:  Solving for nuTilda, Initial residual = 0.006172804103730758, Final residual = 0.0004587598744191269, No Iterations 4
ExecutionTime = 3305.34 s  ClockTime = 3314 s

Time = 95

velocityDampingConstraint velocityDamping damped 0 (0%) of cells, with max limit 300
smoothSolver:  Solving for Ux, Initial residual = 0.002713369727609883, Final residual = 0.0002660957853332428, No Iterations 4
smoothSolver:  Solving for Uy, Initial residual = 0.01182339628582744, Final residual = 0.001174943413610528, No Iterations 4
smoothSolver:  Solving for Uz, Initial residual = 0.01290687400622065, Final residual = 0.001278495776080299, No Iterations 4
[OGL LOG][Proc: 0]: global_index_init: 0.017 [ms]
[OGL LOG][Proc: 0]p_local_coeffs: call_update: 0 [ms]
[OGL LOG][Proc: 0]p_non_local_coeffs: call_update: 0 [ms]
[OGL LOG][Proc: 0]p: update_local_matrix_data: 243.992 [ms]
[OGL LOG][Proc: 0]p: update_non_local_matrix_data: 0.894 [ms]
[OGL LOG][Proc: 0]p_matrix: call_update: 3.705 [ms]
[OGL LOG][Proc: 0]p_rhs: call_update: 15.767 [ms]
[OGL LOG][Preconditioner.H:346] Generate preconditioner Multigrid MaxLevels 9 MinCoarseRows 10 ZeroGuess 1 Cycle v
[OGL LOG][Proc: 0]p: init_precond: 1126.279 [ms]
[OGL LOG][StoppingCriterion.H:239] Creating stopping criterion with minIter 15 frequency 1
[OGL LOG][Proc: 0]p: generate_solver: 0.008999999999999999 [ms]
[OGL LOG][Proc: 0]p: solve: 510.991 [ms]
[OGL LOG][Proc: 0]p: copy_x_back: 25.047 [ms]
[OGL LOG][lduLduBase.H:330] 
Statistics:
	Time per iteration: 31936 [mu s]
	Time per residual norm calculation: 196.000000 [mu s]
	Time per iteration and DOF: 1.265868 [ns]
	Retrieve results bandwidth 2.016000 [GByte/s]
[OGL LOG][Proc: 0]p: solve_multi_gpu: 1708.867 [ms]
MultigridcudaGKOCG:  Solving for p, Initial residual = 0.04169399178407882, Final residual = 0.0004039680415755587, No Iterations 16
time step continuity errors : sum local = 0.0003007865772717018, global = -5.128354957131171e-05, cumulative = -0.003409619215444273
smoothSolver:  Solving for nuTilda, Initial residual = 0.008949994095586639, Final residual = 0.0008013861526587017, No Iterations 3
ExecutionTime = 3336.63 s  ClockTime = 3345 s

Time = 96

velocityDampingConstraint velocityDamping damped 0 (0%) of cells, with max limit 300
smoothSolver:  Solving for Ux, Initial residual = 0.002674956658064209, Final residual = 0.0002640162823532695, No Iterations 4
smoothSolver:  Solving for Uy, Initial residual = 0.01184239943181383, Final residual = 0.001177607618650667, No Iterations 4
smoothSolver:  Solving for Uz, Initial residual = 0.01288275523255704, Final residual = 0.001278422388599524, No Iterations 4
[OGL LOG][Proc: 0]: global_index_init: 0.02 [ms]
[OGL LOG][Proc: 0]p_local_coeffs: call_update: 0 [ms]
[OGL LOG][Proc: 0]p_non_local_coeffs: call_update: 0 [ms]
[OGL LOG][Proc: 0]p: update_local_matrix_data: 245.835 [ms]
[OGL LOG][Proc: 0]p: update_non_local_matrix_data: 0.887 [ms]
[OGL LOG][Proc: 0]p_matrix: call_update: 3.915 [ms]
[OGL LOG][Proc: 0]p_rhs: call_update: 14.911 [ms]
[OGL LOG][Preconditioner.H:346] Generate preconditioner Multigrid MaxLevels 9 MinCoarseRows 10 ZeroGuess 1 Cycle v
[OGL LOG][Proc: 0]p: init_precond: 1133.943 [ms]
[OGL LOG][StoppingCriterion.H:239] Creating stopping criterion with minIter 9 frequency 1
[OGL LOG][Proc: 0]p: generate_solver: 0.008999999999999999 [ms]
[OGL LOG][Proc: 0]p: solve: 1035.472 [ms]
[OGL LOG][Proc: 0]p: copy_x_back: 25.126 [ms]
[OGL LOG][lduLduBase.H:330] 
Statistics:
	Time per iteration: 19912 [mu s]
	Time per residual norm calculation: 175.000000 [mu s]
	Time per iteration and DOF: 0.789265 [ns]
	Retrieve results bandwidth 2.010000 [GByte/s]
[OGL LOG][Proc: 0]p: solve_multi_gpu: 2240.538 [ms]
MultigridcudaGKOCG:  Solving for p, Initial residual = 0.04148667199093325, Final residual = 0.0003880138203113031, No Iterations 52
time step continuity errors : sum local = 0.0002877664580585925, global = -6.72937597305167e-06, cumulative = -0.003416348591417325
smoothSolver:  Solving for nuTilda, Initial residual = 0.006099871609508397, Final residual = 0.0004578864324582866, No Iterations 4
ExecutionTime = 3368.61 s  ClockTime = 3377 s

Time = 97

velocityDampingConstraint velocityDamping damped 0 (0%) of cells, with max limit 300
smoothSolver:  Solving for Ux, Initial residual = 0.002680656900112348, Final residual = 0.0002635182227500299, No Iterations 4
smoothSolver:  Solving for Uy, Initial residual = 0.01185853099806699, Final residual = 0.001179695891353398, No Iterations 4
smoothSolver:  Solving for Uz, Initial residual = 0.01286232829429329, Final residual = 0.001278081411582745, No Iterations 4
[OGL LOG][Proc: 0]: global_index_init: 0.016 [ms]
[OGL LOG][Proc: 0]p_local_coeffs: call_update: 0 [ms]
[OGL LOG][Proc: 0]p_non_local_coeffs: call_update: 0 [ms]
[OGL LOG][Proc: 0]p: update_local_matrix_data: 243.72 [ms]
[OGL LOG][Proc: 0]p: update_non_local_matrix_data: 0.779 [ms]
[OGL LOG][Proc: 0]p_matrix: call_update: 3.897 [ms]
[OGL LOG][Proc: 0]p_rhs: call_update: 15.152 [ms]
[OGL LOG][Preconditioner.H:346] Generate preconditioner Multigrid MaxLevels 9 MinCoarseRows 10 ZeroGuess 1 Cycle v
[OGL LOG][Proc: 0]p: init_precond: 1116.376 [ms]
[OGL LOG][StoppingCriterion.H:239] Creating stopping criterion with minIter 31 frequency 1
[OGL LOG][Proc: 0]p: generate_solver: 0.008999999999999999 [ms]
[OGL LOG][Proc: 0]p: solve: 746.991 [ms]
[OGL LOG][Proc: 0]p: copy_x_back: 25.045 [ms]
[OGL LOG][lduLduBase.H:330] 
Statistics:
	Time per iteration: 23343 [mu s]
	Time per residual norm calculation: 194.000000 [mu s]
	Time per iteration and DOF: 0.925261 [ns]
	Retrieve results bandwidth 2.016000 [GByte/s]
[OGL LOG][Proc: 0]p: solve_multi_gpu: 1934.723 [ms]
MultigridcudaGKOCG:  Solving for p, Initial residual = 0.0432759637988572, Final residual = 0.000204480504329002, No Iterations 32
time step continuity errors : sum local = 0.0001434620240784121, global = 4.440681211259069e-06, cumulative = -0.003411907910206066
smoothSolver:  Solving for nuTilda, Initial residual = 0.008754690816688724, Final residual = 0.0008008665594162666, No Iterations 3
ExecutionTime = 3400.17 s  ClockTime = 3409 s

Time = 98

velocityDampingConstraint velocityDamping damped 0 (0%) of cells, with max limit 300
smoothSolver:  Solving for Ux, Initial residual = 0.002659517681580419, Final residual = 0.0002623413788554692, No Iterations 4
smoothSolver:  Solving for Uy, Initial residual = 0.01187717761813976, Final residual = 0.001182476195147573, No Iterations 4
smoothSolver:  Solving for Uz, Initial residual = 0.01285770199497315, Final residual = 0.00127919387792868, No Iterations 4
[OGL LOG][Proc: 0]: global_index_init: 0.016 [ms]
[OGL LOG][Proc: 0]p_local_coeffs: call_update: 0 [ms]
[OGL LOG][Proc: 0]p_non_local_coeffs: call_update: 0 [ms]
[OGL LOG][Proc: 0]p: update_local_matrix_data: 243.212 [ms]
[OGL LOG][Proc: 0]p: update_non_local_matrix_data: 0.868 [ms]
[OGL LOG][Proc: 0]p_matrix: call_update: 4.005 [ms]
[OGL LOG][Proc: 0]p_rhs: call_update: 14.98 [ms]
[OGL LOG][Preconditioner.H:346] Generate preconditioner Multigrid MaxLevels 9 MinCoarseRows 10 ZeroGuess 1 Cycle v
[OGL LOG][Proc: 0]p: init_precond: 1124.484 [ms]
[OGL LOG][StoppingCriterion.H:239] Creating stopping criterion with minIter 19 frequency 1
[OGL LOG][Proc: 0]p: generate_solver: 0.008999999999999999 [ms]
[OGL LOG][Proc: 0]p: solve: 671.109 [ms]
[OGL LOG][Proc: 0]p: copy_x_back: 24.939 [ms]
[OGL LOG][lduLduBase.H:330] 
Statistics:
	Time per iteration: 24855 [mu s]
	Time per residual norm calculation: 170.000000 [mu s]
	Time per iteration and DOF: 0.985194 [ns]
	Retrieve results bandwidth 2.025000 [GByte/s]
[OGL LOG][Proc: 0]p: solve_multi_gpu: 1866.355 [ms]
MultigridcudaGKOCG:  Solving for p, Initial residual = 0.04252485721528109, Final residual = 0.0004030985101584224, No Iterations 27
time step continuity errors : sum local = 0.0002842259709996784, global = 4.591113122926144e-05, cumulative = -0.003365996778976805
smoothSolver:  Solving for nuTilda, Initial residual = 0.006035982808621112, Final residual = 0.0004574985440530002, No Iterations 4
ExecutionTime = 3431.69 s  ClockTime = 3441 s

Time = 99

velocityDampingConstraint velocityDamping damped 0 (0%) of cells, with max limit 300
smoothSolver:  Solving for Ux, Initial residual = 0.002679074695044442, Final residual = 0.0002621515718815499, No Iterations 4
smoothSolver:  Solving for Uy, Initial residual = 0.01190638682775262, Final residual = 0.001185645498455179, No Iterations 4
smoothSolver:  Solving for Uz, Initial residual = 0.01284337037322016, Final residual = 0.001278759723021067, No Iterations 4
[OGL LOG][Proc: 0]: global_index_init: 0.023 [ms]
[OGL LOG][Proc: 0]p_local_coeffs: call_update: 0 [ms]
[OGL LOG][Proc: 0]p_non_local_coeffs: call_update: 0 [ms]
[OGL LOG][Proc: 0]p: update_local_matrix_data: 243.353 [ms]
[OGL LOG][Proc: 0]p: update_non_local_matrix_data: 0.88 [ms]
[OGL LOG][Proc: 0]p_matrix: call_update: 3.926 [ms]
[OGL LOG][Proc: 0]p_rhs: call_update: 15.368 [ms]
[OGL LOG][Preconditioner.H:346] Generate preconditioner Multigrid MaxLevels 9 MinCoarseRows 10 ZeroGuess 1 Cycle v
[OGL LOG][Proc: 0]p: init_precond: 1129.458 [ms]
[OGL LOG][StoppingCriterion.H:239] Creating stopping criterion with minIter 16 frequency 1
[OGL LOG][Proc: 0]p: generate_solver: 0.011 [ms]
[OGL LOG][Proc: 0]p: solve: 844.1420000000001 [ms]
[OGL LOG][Proc: 0]p: copy_x_back: 25.065 [ms]
[OGL LOG][lduLduBase.H:330] 
Statistics:
	Time per iteration: 21644 [mu s]
	Time per residual norm calculation: 183.000000 [mu s]
	Time per iteration and DOF: 0.857917 [ns]
	Retrieve results bandwidth 2.015000 [GByte/s]
[OGL LOG][Proc: 0]p: solve_multi_gpu: 2045.137 [ms]
MultigridcudaGKOCG:  Solving for p, Initial residual = 0.04173386186552488, Final residual = 0.0004043626167385129, No Iterations 39
time step continuity errors : sum local = 0.0002878235329704072, global = 1.017140315792347e-05, cumulative = -0.003355825375818881
smoothSolver:  Solving for nuTilda, Initial residual = 0.008577368571181141, Final residual = 0.0008010541343570389, No Iterations 3
ExecutionTime = 3463.33 s  ClockTime = 3472 s

Time = 100

velocityDampingConstraint velocityDamping damped 0 (0%) of cells, with max limit 300
smoothSolver:  Solving for Ux, Initial residual = 0.00263163817125, Final residual = 0.0002596918701769976, No Iterations 4
smoothSolver:  Solving for Uy, Initial residual = 0.01192612724122841, Final residual = 0.001189302520691524, No Iterations 4
smoothSolver:  Solving for Uz, Initial residual = 0.01281549066137438, Final residual = 0.001278185325601687, No Iterations 4
[OGL LOG][Proc: 0]: global_index_init: 0.016 [ms]
[OGL LOG][Proc: 0]p_local_coeffs: call_update: 0 [ms]
[OGL LOG][Proc: 0]p_non_local_coeffs: call_update: 0 [ms]
[OGL LOG][Proc: 0]p: update_local_matrix_data: 244.29 [ms]
[OGL LOG][Proc: 0]p: update_non_local_matrix_data: 0.8070000000000001 [ms]
[OGL LOG][Proc: 0]p_matrix: call_update: 3.919 [ms]
[OGL LOG][Proc: 0]p_rhs: call_update: 14.978 [ms]
[OGL LOG][Preconditioner.H:346] Generate preconditioner Multigrid MaxLevels 9 MinCoarseRows 10 ZeroGuess 1 Cycle v
[OGL LOG][Proc: 0]p: init_precond: 1124.958 [ms]
[OGL LOG][StoppingCriterion.H:239] Creating stopping criterion with minIter 23 frequency 1
[OGL LOG][Proc: 0]p: generate_solver: 0.01 [ms]
[OGL LOG][Proc: 0]p: solve: 638.51 [ms]
[OGL LOG][Proc: 0]p: copy_x_back: 25.022 [ms]
[OGL LOG][lduLduBase.H:330] 
Statistics:
	Time per iteration: 26604 [mu s]
	Time per residual norm calculation: 188.000000 [mu s]
	Time per iteration and DOF: 1.054520 [ns]
	Retrieve results bandwidth 2.018000 [GByte/s]
[OGL LOG][Proc: 0]p: solve_multi_gpu: 1834.529 [ms]
MultigridcudaGKOCG:  Solving for p, Initial residual = 0.03909876126517946, Final residual = 0.000167307344934224, No Iterations 24
time step continuity errors : sum local = 0.0001258952079037926, global = -2.603181521353434e-05, cumulative = -0.003381857191032415
smoothSolver:  Solving for nuTilda, Initial residual = 0.005982054082826545, Final residual = 0.0004575466230889872, No Iterations 4
ExecutionTime = 3494.81 s  ClockTime = 3504 s

End

Finalising parallel run
