/*---------------------------------------------------------------------------*\
| =========                 |                                                 |
| \\      /  F ield         | OpenFOAM: The Open Source CFD Toolbox           |
|  \\    /   O peration     | Version:  2306                                  |
|   \\  /    A nd           | Website:  www.openfoam.com                      |
|    \\/     M anipulation  |                                                 |
\*---------------------------------------------------------------------------*/
Build  : c423ebec-20231012 OPENFOAM=2306 version=v2306
Arch   : "LSB;label=32;scalar=64"
Exec   : simpleFoam -parallel -case /hkfs/work/workspace/scratch/eq4036-windsorbody_setup/workspace/97ee95fb5a544415360c33d4312268a1/case
Date   : Feb 16 2024
Time   : 20:32:42
Host   : hkn0516.localdomain
PID    : 156555
I/O    : uncollated
Case   : /hkfs/work/workspace/scratch/eq4036-windsorbody_setup/workspace/97ee95fb5a544415360c33d4312268a1/case
nProcs : 16
Hosts  :
(
    (hkn0516.localdomain 8)
    (hkn0518.localdomain 8)
)
Pstream initialized with:
    floatTransfer      : false
    nProcsSimpleSum    : 0
    nonBlockingExchange: 0 (tuning: 0)
    exchange algorithm : -1
    commsType          : nonBlocking
    polling iterations : 0
trapFpe: Floating point exception trapping enabled (FOAM_SIGFPE).
fileModificationChecking : Monitoring run-time modified files using timeStampMaster (fileModificationSkew 5, maxFileModificationPolls 20)
allowSystemOperations : Allowing user-supplied system call operations

// * * * * * * * * * * * * * * * * * * * * * * * * * * * * * * * * * * * * * //
Create time

--> FOAM Warning : 
    From void* Foam::dlLibraryTable::openLibrary(const Foam::fileName&, bool)
    in file db/dynamicLibrary/dlLibraryTable/dlLibraryTable.C at line 188
    Could not load "libpetscFoam.so"
libpetscFoam.so: cannot open shared object file: No such file or directory
Create mesh for time = 0


SIMPLE: convergence criteria
    field p	 tolerance 1e-08
    field U	 tolerance 1e-08
    field k	 tolerance 1e-08
    field omega	 tolerance 1e-08
    field nuTilda	 tolerance 1e-08

Reading field p

Reading field U

Reading/calculating face flux field phi

Selecting incompressible transport model Newtonian
Selecting turbulence model type RAS
Selecting RAS turbulence model SpalartAllmaras
Selecting patchDistMethod meshWave
ft2 term: inactive
RAS
{
    RASModel        SpalartAllmaras;
    turbulence      on;
    printCoeffs     on;
    sigmaNut        0.66666;
    kappa           0.41;
    Cb1             0.1355;
    Cb2             0.622;
    Cw2             0.3;
    Cw3             2;
    Cv1             7.1;
    Cs              0.3;
    ck              0.07000000000000001;
    ft2             false;
    Ct3             1.2;
    Ct4             0.5;
}

No MRF models present

Creating finite volume options from "system/fvOptions"

Selecting finite volume options type velocityDampingConstraint
    Source: velocityDamping
    - selecting all cells
    - selected 50457088 cell(s) with volume 222.6066441268596

Starting time loop

--> FOAM Warning : 
    From bool Foam::functionObjectList::read()
    in file db/functionObjects/functionObjectList/functionObjectList.C at line 1035
    Reading "system/controlDict" at line 2 to 41
    Entry 'lref' is not a dictionary
--> FOAM Warning : 
    From bool Foam::functionObjectList::read()
    in file db/functionObjects/functionObjectList/functionObjectList.C at line 1035
    Reading "system/controlDict" at line 2 to 41
    Entry 'Aref' is not a dictionary
--> FOAM Warning : 
    From bool Foam::functionObjectList::read()
    in file db/functionObjects/functionObjectList/functionObjectList.C at line 1035
    Reading "system/controlDict" at line 2 to 41
    Entry 'yawAngle' is not a dictionary
--> FOAM Warning : 
    From bool Foam::functionObjectList::read()
    in file db/functionObjects/functionObjectList/functionObjectList.C at line 1035
    Reading "system/controlDict" at line 2 to 41
    Entry 'lDomain' is not a dictionary
--> FOAM Warning : 
    From bool Foam::functionObjectList::read()
    in file db/functionObjects/functionObjectList/functionObjectList.C at line 1035
    Reading "system/controlDict" at line 2 to 41
    Entry 'bDomain' is not a dictionary
--> FOAM Warning : 
    From bool Foam::functionObjectList::read()
    in file db/functionObjects/functionObjectList/functionObjectList.C at line 1035
    Reading "system/controlDict" at line 2 to 41
    Entry 'hDomain' is not a dictionary
--> FOAM Warning : 
    From bool Foam::functionObjectList::read()
    in file db/functionObjects/functionObjectList/functionObjectList.C at line 1035
    Reading "system/controlDict" at line 2 to 41
    Entry 'xCenter' is not a dictionary
--> FOAM Warning : 
    From bool Foam::functionObjectList::read()
    in file db/functionObjects/functionObjectList/functionObjectList.C at line 1035
    Reading "system/controlDict" at line 2 to 41
    Entry 'yCenter' is not a dictionary
--> FOAM Warning : 
    From bool Foam::functionObjectList::read()
    in file db/functionObjects/functionObjectList/functionObjectList.C at line 1035
    Reading "system/controlDict" at line 2 to 41
    Entry 'zCenter' is not a dictionary
--> FOAM Warning : 
    From bool Foam::functionObjectList::read()
    in file db/functionObjects/functionObjectList/functionObjectList.C at line 1035
    Reading "system/controlDict" at line 2 to 41
    Entry 'inletPatch' is not a dictionary
--> FOAM Warning : 
    From bool Foam::functionObjectList::read()
    in file db/functionObjects/functionObjectList/functionObjectList.C at line 1035
    Reading "system/controlDict" at line 2 to 41
    Entry 'outletPatch' is not a dictionary
--> FOAM Warning : 
    From bool Foam::functionObjectList::read()
    in file db/functionObjects/functionObjectList/functionObjectList.C at line 1035
    Reading "system/controlDict" at line 2 to 41
    Entry 'wallPatches' is not a dictionary
--> FOAM Warning : 
    From bool Foam::functionObjectList::read()
    in file db/functionObjects/functionObjectList/functionObjectList.C at line 1035
    Reading "system/controlDict" at line 2 to 41
    Entry 'forcesWallPatches' is not a dictionary
--> FOAM Warning : 
    From bool Foam::functionObjectList::read()
    in file db/functionObjects/functionObjectList/functionObjectList.C at line 1035
    Reading "system/controlDict" at line 2 to 41
    Entry 'symmPatches' is not a dictionary
--> FOAM Warning : 
    From bool Foam::functionObjectList::read()
    in file db/functionObjects/functionObjectList/functionObjectList.C at line 1035
    Reading "system/controlDict" at line 2 to 41
    Entry 'Uinf' is not a dictionary
--> FOAM Warning : 
    From bool Foam::functionObjectList::read()
    in file db/functionObjects/functionObjectList/functionObjectList.C at line 1035
    Reading "system/controlDict" at line 2 to 41
    Entry 'UinfMag' is not a dictionary
--> FOAM Warning : 
    From bool Foam::functionObjectList::read()
    in file db/functionObjects/functionObjectList/functionObjectList.C at line 1035
    Reading "system/controlDict" at line 2 to 41
    Entry 'nu' is not a dictionary
--> FOAM Warning : 
    From bool Foam::functionObjectList::read()
    in file db/functionObjects/functionObjectList/functionObjectList.C at line 1035
    Reading "system/controlDict" at line 2 to 41
    Entry 'pref' is not a dictionary
--> FOAM Warning : 
    From bool Foam::functionObjectList::read()
    in file db/functionObjects/functionObjectList/functionObjectList.C at line 1035
    Reading "system/controlDict" at line 2 to 41
    Entry 'viscRatio' is not a dictionary
--> FOAM Warning : 
    From bool Foam::functionObjectList::read()
    in file db/functionObjects/functionObjectList/functionObjectList.C at line 1035
    Reading "system/controlDict" at line 2 to 41
    Entry 'Tu' is not a dictionary
--> FOAM Warning : 
    From bool Foam::functionObjectList::read()
    in file db/functionObjects/functionObjectList/functionObjectList.C at line 1035
    Reading "system/controlDict" at line 2 to 41
    Entry 'LESturbModel' is not a dictionary
--> FOAM Warning : 
    From bool Foam::functionObjectList::read()
    in file db/functionObjects/functionObjectList/functionObjectList.C at line 1035
    Reading "system/controlDict" at line 2 to 41
    Entry 'RASturbModel' is not a dictionary
--> FOAM Warning : 
    From bool Foam::functionObjectList::read()
    in file db/functionObjects/functionObjectList/functionObjectList.C at line 1035
    Reading "system/controlDict" at line 2 to 41
    Entry 'deltaTurb' is not a dictionary
--> FOAM Warning : 
    From bool Foam::functionObjectList::read()
    in file db/functionObjects/functionObjectList/functionObjectList.C at line 1035
    Reading "system/controlDict" at line 2 to 41
    Entry 'dt' is not a dictionary
--> FOAM Warning : 
    From bool Foam::functionObjectList::read()
    in file db/functionObjects/functionObjectList/functionObjectList.C at line 1035
    Reading "system/controlDict" at line 2 to 41
    Entry 'tAvg' is not a dictionary
--> FOAM Warning : 
    From bool Foam::functionObjectList::read()
    in file db/functionObjects/functionObjectList/functionObjectList.C at line 1035
    Reading "system/controlDict" at line 2 to 41
    Entry 'tEnd' is not a dictionary
--> FOAM Warning : 
    From bool Foam::functionObjectList::read()
    in file db/functionObjects/functionObjectList/functionObjectList.C at line 1035
    Reading "system/controlDict" at line 2 to 41
    Entry 'writeInterval_' is not a dictionary
--> FOAM Warning : 
    From bool Foam::functionObjectList::read()
    in file db/functionObjects/functionObjectList/functionObjectList.C at line 1035
    Reading "system/controlDict" at line 2 to 41
    Entry 'nCores' is not a dictionary
--> FOAM Warning : 
    From bool Foam::functionObjectList::read()
    in file db/functionObjects/functionObjectList/functionObjectList.C at line 1035
    Reading "system/controlDict" at line 2 to 41
    Entry 'interpScheme' is not a dictionary
--> FOAM Warning : 
    From bool Foam::functionObjectList::read()
    in file db/functionObjects/functionObjectList/functionObjectList.C at line 1035
    Reading "system/controlDict" at line 2 to 41
    Entry 'probeField' is not a dictionary
wallShearStress wallShearStress:
    processing wall patches: 
        Windsor_Body
        CFDWT_Floor
        Windsor_Pins
        Windsor_Base
        Windsor_Body_2
        CFDWT_Floor_2
        Windsor_Pins_2
        Windsor_Base_2
        Windsor_Body_3
        CFDWT_Floor_3
        Windsor_Pins_3
        Windsor_Base_3
        Windsor_Body_4
        CFDWT_Floor_4
        Windsor_Pins_4
        Windsor_Base_4
        Windsor_Body_5
        CFDWT_Floor_5
        Windsor_Pins_5
        Windsor_Base_5
        Windsor_Body_6
        CFDWT_Floor_6
        Windsor_Pins_6
        Windsor_Base_6
        Windsor_Body_7
        CFDWT_Floor_7
        Windsor_Pins_7
        Windsor_Base_7
        Windsor_Body_8
        CFDWT_Floor_8
        Windsor_Pins_8
        Windsor_Base_8

pressure calc_cp:
    Operating mode: staticCoeff
    Not including hydrostatic effects

forceCoeffs forceCoeffsAll:
    rho: rhoInf
    Freestream density (rhoInf) set to 1
    Not including porosity effects
    magUInf: 40
    lRef   : 0.6375
    Aref   : 0.1124
    rhoInf : 1
    Selecting all coefficients
    - Drag force: Cd
    - Drag force front: Cd(f)
    - Drag force rear: Cd(r)
    - Lift force: Cl
    - Lift force front: Cl(f)
    - Lift force rear: Cl(r)
    - Pitch moment: CmPitch
    - Roll moment: CmRoll
    - Yaw moment: CmYaw
    - Side force: Cs
    - Side force front: Cs(f)
    - Side force rear: Cs(r)


forceCoeffs dragCoeffBase:
    rho: rhoInf
    Freestream density (rhoInf) set to 1
    Not including porosity effects
    magUInf: 40
    lRef   : 0.6375
    Aref   : 0.1124
    rhoInf : 1
    Selecting coefficients:
    - Drag force: Cd


Time = 1

velocityDampingConstraint velocityDamping damped 0 (0%) of cells, with max limit 300
[OGL LOG][lduLduBase.H:119] Initialising OGL
	OGL commit:  e75313f+
	Branch: dev 
	Build type: Debug
	Ginkgo version: 1.8.0 ( develop)
	Ginkgo commit: sparse-communicator
	MPI is GPU aware: 1
	Forces host buffer based communication: 0
	CPU ranks per GPU: 1
	Matrix format: Coo
	End OGL_INFO
[OGL LOG][Proc: 0]: global_index_init: 14.033 [ms]
[OGL LOG][Proc: 0]Ux_local_cols: call_init: 1.679 [ms]
[OGL LOG][Proc: 0]Ux_local_rows: call_init: 0.464 [ms]
[OGL LOG][Proc: 0]Ux_local_ldu_map: call_init: 0.578 [ms]
[OGL LOG][Proc: 0]Ux_local_coeffs: call_init: 5.377 [ms]
[OGL LOG][Proc: 0]Ux_non_local_cols: call_init: 0.323 [ms]
[OGL LOG][Proc: 0]Ux_non_local_rows: call_init: 0.259 [ms]
[OGL LOG][Proc: 0]Ux_non_local_ldu_map: call_init: 0.146 [ms]
[OGL LOG][Proc: 0]Ux_non_local_coeffs: call_init: 0.494 [ms]
[OGL LOG][Proc: 0]Ux: init_local_sparsity_pattern: 143852.663 [ms]
[OGL LOG][Proc: 0]Ux: init_non_local_sparsity_pattern: 27148.64 [ms]
[OGL LOG][Proc: 0]Ux: update_local_matrix_data: 198.795 [ms]
[OGL LOG][Proc: 0]Ux: update_non_local_matrix_data: 2.532 [ms]
[OGL LOG][Proc: 0]device_partition: call_init: 0.362 [ms]
[OGL LOG][Proc: 0]Ux_matrix: call_init: 340.709 [ms]
[OGL LOG][Proc: 0]Ux_rhs: call_init: 6.12 [ms]
[OGL LOG][Proc: 0]Ux_solution: call_init: 4.9 [ms]
[OGL LOG][Preconditioner.H:121] Generate preconditioner BJ MaxBlockSize 1
[OGL LOG][Proc: 0]Ux: init_precond: 15.38 [ms]
[OGL LOG][StoppingCriterion.H:239] Creating stopping criterion with minIter 0 frequency 1
[OGL LOG][Proc: 0]Ux: generate_solver: 0.296 [ms]
[OGL LOG][Proc: 0]Ux: solve: 308.334 [ms]
[OGL LOG][Proc: 0]Ux: copy_x_back: 14.806 [ms]
[OGL LOG][lduLduBase.H:330] 
Statistics:
	Time per iteration: 44047 [mu s]
	Time per residual norm calculation: 5706.000000 [mu s]
	Time per iteration and DOF: 0.872960 [ns]
	Retrieve results bandwidth 2.031000 [GByte/s]
[OGL LOG][Proc: 0]Ux: solve_multi_gpu: 944.092 [ms]
BJcudaGKOBiCGStab:  Solving for Ux, Initial residual = 1.000000000001717, Final residual = 0.04568491065510549, No Iterations 7
[OGL LOG][lduLduBase.H:119] Initialising OGL
	OGL commit:  e75313f+
	Branch: dev 
	Build type: Debug
	Ginkgo version: 1.8.0 ( develop)
	Ginkgo commit: sparse-communicator
	MPI is GPU aware: 1
	Forces host buffer based communication: 0
	CPU ranks per GPU: 1
	Matrix format: Coo
	End OGL_INFO
[OGL LOG][Proc: 0]: global_index_init: 3.95 [ms]
[OGL LOG][Proc: 0]Uy_local_cols: call_init: 0.051 [ms]
[OGL LOG][Proc: 0]Uy_local_rows: call_init: 0.022 [ms]
[OGL LOG][Proc: 0]Uy_local_ldu_map: call_init: 0.025 [ms]
[OGL LOG][Proc: 0]Uy_local_coeffs: call_init: 1.422 [ms]
[OGL LOG][Proc: 0]Uy_non_local_cols: call_init: 0.024 [ms]
[OGL LOG][Proc: 0]Uy_non_local_rows: call_init: 0.006 [ms]
[OGL LOG][Proc: 0]Uy_non_local_ldu_map: call_init: 0.003 [ms]
[OGL LOG][Proc: 0]Uy_non_local_coeffs: call_init: 0.008999999999999999 [ms]
[OGL LOG][Proc: 0]Uy: init_local_sparsity_pattern: 143841.661 [ms]
[OGL LOG][Proc: 0]Uy: init_non_local_sparsity_pattern: 27180.672 [ms]
[OGL LOG][Proc: 0]Uy: update_local_matrix_data: 170.615 [ms]
[OGL LOG][Proc: 0]Uy: update_non_local_matrix_data: 2.197 [ms]
[OGL LOG][Proc: 0]Uy_matrix: call_init: 345.694 [ms]
[OGL LOG][Proc: 0]Uy_rhs: call_init: 10.138 [ms]
[OGL LOG][Proc: 0]Uy_solution: call_init: 11.372 [ms]
[OGL LOG][Preconditioner.H:121] Generate preconditioner BJ MaxBlockSize 1
[OGL LOG][Proc: 0]Uy: init_precond: 2.095 [ms]
[OGL LOG][StoppingCriterion.H:239] Creating stopping criterion with minIter 0 frequency 1
[OGL LOG][Proc: 0]Uy: generate_solver: 0.023 [ms]
[OGL LOG][Proc: 0]Uy: solve: 363.527 [ms]
[OGL LOG][Proc: 0]Uy: copy_x_back: 14.716 [ms]
[OGL LOG][lduLduBase.H:330] 
Statistics:
	Time per iteration: 36352 [mu s]
	Time per residual norm calculation: 1842.000000 [mu s]
	Time per iteration and DOF: 0.720454 [ns]
	Retrieve results bandwidth 2.044000 [GByte/s]
[OGL LOG][Proc: 0]Uy: solve_multi_gpu: 991.3630000000001 [ms]
BJcudaGKOBiCGStab:  Solving for Uy, Initial residual = 1.000000000000006, Final residual = 0.07725065440092055, No Iterations 10
[OGL LOG][lduLduBase.H:119] Initialising OGL
	OGL commit:  e75313f+
	Branch: dev 
	Build type: Debug
	Ginkgo version: 1.8.0 ( develop)
	Ginkgo commit: sparse-communicator
	MPI is GPU aware: 1
	Forces host buffer based communication: 0
	CPU ranks per GPU: 1
	Matrix format: Coo
	End OGL_INFO
[OGL LOG][Proc: 0]: global_index_init: 0.845 [ms]
[OGL LOG][Proc: 0]Uz_local_cols: call_init: 0.362 [ms]
[OGL LOG][Proc: 0]Uz_local_rows: call_init: 1.022 [ms]
[OGL LOG][Proc: 0]Uz_local_ldu_map: call_init: 0.645 [ms]
[OGL LOG][Proc: 0]Uz_local_coeffs: call_init: 2.045 [ms]
[OGL LOG][Proc: 0]Uz_non_local_cols: call_init: 0.047 [ms]
[OGL LOG][Proc: 0]Uz_non_local_rows: call_init: 0.233 [ms]
[OGL LOG][Proc: 0]Uz_non_local_ldu_map: call_init: 0.223 [ms]
[OGL LOG][Proc: 0]Uz_non_local_coeffs: call_init: 0.214 [ms]
[OGL LOG][Proc: 0]Uz: init_local_sparsity_pattern: 143842.131 [ms]
[OGL LOG][Proc: 0]Uz: init_non_local_sparsity_pattern: 27158.743 [ms]
[OGL LOG][Proc: 0]Uz: update_local_matrix_data: 171.252 [ms]
[OGL LOG][Proc: 0]Uz: update_non_local_matrix_data: 2.286 [ms]
[OGL LOG][Proc: 0]Uz_matrix: call_init: 346.098 [ms]
[OGL LOG][Proc: 0]Uz_rhs: call_init: 9.590999999999999 [ms]
[OGL LOG][Proc: 0]Uz_solution: call_init: 10.03 [ms]
[OGL LOG][Preconditioner.H:121] Generate preconditioner BJ MaxBlockSize 1
[OGL LOG][Proc: 0]Uz: init_precond: 2.17 [ms]
[OGL LOG][StoppingCriterion.H:239] Creating stopping criterion with minIter 0 frequency 1
[OGL LOG][Proc: 0]Uz: generate_solver: 0.024 [ms]
[OGL LOG][Proc: 0]Uz: solve: 197.646 [ms]
[OGL LOG][Proc: 0]Uz: copy_x_back: 14.932 [ms]
[OGL LOG][lduLduBase.H:330] 
Statistics:
	Time per iteration: 197646 [mu s]
	Time per residual norm calculation: 1783.000000 [mu s]
	Time per iteration and DOF: 3.917111 [ns]
	Retrieve results bandwidth 2.014000 [GByte/s]
[OGL LOG][Proc: 0]Uz: solve_multi_gpu: 822.5650000000001 [ms]
BJcudaGKOBiCGStab:  Solving for Uz, Initial residual = 1.000000000000032, Final residual = 0.07317246117891114, No Iterations 1
[OGL LOG][lduLduBase.H:119] Initialising OGL
	OGL commit:  e75313f+
	Branch: dev 
	Build type: Debug
	Ginkgo version: 1.8.0 ( develop)
	Ginkgo commit: sparse-communicator
	MPI is GPU aware: 1
	Forces host buffer based communication: 0
	CPU ranks per GPU: 1
	Matrix format: Coo
	End OGL_INFO
[OGL LOG][Proc: 0]: global_index_init: 0.028 [ms]
[OGL LOG][Proc: 0]p_local_cols: call_init: 0.033 [ms]
[OGL LOG][Proc: 0]p_local_rows: call_init: 0.031 [ms]
[OGL LOG][Proc: 0]p_local_ldu_map: call_init: 0.025 [ms]
[OGL LOG][Proc: 0]p_local_coeffs: call_init: 1.435 [ms]
[OGL LOG][Proc: 0]p_non_local_cols: call_init: 0.018 [ms]
[OGL LOG][Proc: 0]p_non_local_rows: call_init: 0.005 [ms]
[OGL LOG][Proc: 0]p_non_local_ldu_map: call_init: 0.004 [ms]
[OGL LOG][Proc: 0]p_non_local_coeffs: call_init: 0.01 [ms]
[OGL LOG][Proc: 0]p: init_local_sparsity_pattern: 144301.52 [ms]
[OGL LOG][Proc: 0]p: init_non_local_sparsity_pattern: 25977.986 [ms]
[OGL LOG][Proc: 0]p: update_local_matrix_data: 129.134 [ms]
[OGL LOG][Proc: 0]p: update_non_local_matrix_data: 2.577 [ms]
[OGL LOG][Proc: 0]p_matrix: call_init: 339.682 [ms]
[OGL LOG][Proc: 0]p_rhs: call_init: 9.794 [ms]
[OGL LOG][Proc: 0]p_solution: call_init: 9.250999999999999 [ms]
[OGL LOG][Preconditioner.H:346] Generate preconditioner Multigrid MaxLevels 9 MinCoarseRows 10 ZeroGuess 1 Cycle v
[OGL LOG][Proc: 0]p: init_precond: 867.428 [ms]
[OGL LOG][StoppingCriterion.H:239] Creating stopping criterion with minIter 0 frequency 1
[OGL LOG][Proc: 0]p: generate_solver: 0.031 [ms]
[OGL LOG][Proc: 0]p: solve: 3235.95 [ms]
[OGL LOG][Proc: 0]p: copy_x_back: 14.482 [ms]
[OGL LOG][lduLduBase.H:330] 
Statistics:
	Time per iteration: 24891 [mu s]
	Time per residual norm calculation: 1453.000000 [mu s]
	Time per iteration and DOF: 0.493310 [ns]
	Retrieve results bandwidth 2.077000 [GByte/s]
[OGL LOG][Proc: 0]p: solve_multi_gpu: 4771.403 [ms]
MultigridcudaGKOCG:  Solving for p, Initial residual = 1.000000000000789, Final residual = 0.009835483805019144, No Iterations 130
time step continuity errors : sum local = 0.003563843650409182, global = 9.263300458278598e-05, cumulative = 9.263300458278598e-05
[OGL LOG][lduLduBase.H:119] Initialising OGL
	OGL commit:  e75313f+
	Branch: dev 
	Build type: Debug
	Ginkgo version: 1.8.0 ( develop)
	Ginkgo commit: sparse-communicator
	MPI is GPU aware: 1
	Forces host buffer based communication: 0
	CPU ranks per GPU: 1
	Matrix format: Coo
	End OGL_INFO
[OGL LOG][Proc: 0]: global_index_init: 7.596 [ms]
[OGL LOG][Proc: 0]nuTilda_local_cols: call_init: 0.646 [ms]
[OGL LOG][Proc: 0]nuTilda_local_rows: call_init: 0.52 [ms]
[OGL LOG][Proc: 0]nuTilda_local_ldu_map: call_init: 0.156 [ms]
[OGL LOG][Proc: 0]nuTilda_local_coeffs: call_init: 1.711 [ms]
[OGL LOG][Proc: 0]nuTilda_non_local_cols: call_init: 0.105 [ms]
[OGL LOG][Proc: 0]nuTilda_non_local_rows: call_init: 0.8090000000000001 [ms]
[OGL LOG][Proc: 0]nuTilda_non_local_ldu_map: call_init: 0.897 [ms]
[OGL LOG][Proc: 0]nuTilda_non_local_coeffs: call_init: 0.453 [ms]
[OGL LOG][Proc: 0]nuTilda: init_local_sparsity_pattern: 143897.197 [ms]
[OGL LOG][Proc: 0]nuTilda: init_non_local_sparsity_pattern: 26828.318 [ms]
[OGL LOG][Proc: 0]nuTilda: update_local_matrix_data: 153.952 [ms]
[OGL LOG][Proc: 0]nuTilda: update_non_local_matrix_data: 2.466 [ms]
[OGL LOG][Proc: 0]nuTilda_matrix: call_init: 345.882 [ms]
[OGL LOG][Proc: 0]nuTilda_rhs: call_init: 5.118 [ms]
[OGL LOG][Proc: 0]nuTilda_solution: call_init: 5.034 [ms]
[OGL LOG][Preconditioner.H:121] Generate preconditioner BJ MaxBlockSize 1
[OGL LOG][Proc: 0]nuTilda: init_precond: 2.209 [ms]
[OGL LOG][StoppingCriterion.H:239] Creating stopping criterion with minIter 0 frequency 1
[OGL LOG][Proc: 0]nuTilda: generate_solver: 0.023 [ms]
[OGL LOG][Proc: 0]nuTilda: solve: 188.852 [ms]
[OGL LOG][Proc: 0]nuTilda: copy_x_back: 10.177 [ms]
[OGL LOG][lduLduBase.H:330] 
Statistics:
	Time per iteration: 62950 [mu s]
	Time per residual norm calculation: 1933.000000 [mu s]
	Time per iteration and DOF: 1.247595 [ns]
	Retrieve results bandwidth 2.955000 [GByte/s]
[OGL LOG][Proc: 0]nuTilda: solve_multi_gpu: 810.789 [ms]
BJcudaGKOBiCGStab:  Solving for nuTilda, Initial residual = 0.9999999955026986, Final residual = 0.03402407032654571, No Iterations 3
bounding nuTilda, min: -0.0003641770385068747 max: 0.001596921515145019 average: 7.141123874109961e-05
ExecutionTime = 915.27 s  ClockTime = 919 s

--> FOAM Warning : 
    From virtual bool Foam::functionObjects::fieldSelection::checkSelection()
    in file functionObjects/fieldSelections/fieldSelection/fieldSelection.C at line 166
    Field k not found
--> FOAM Warning : 
    From virtual bool Foam::functionObjects::fieldSelection::checkSelection()
    in file functionObjects/fieldSelections/fieldSelection/fieldSelection.C at line 166
    Field gammaInt not found
--> FOAM Warning : 
    From virtual bool Foam::functionObjects::fieldSelection::checkSelection()
    in file functionObjects/fieldSelections/fieldSelection/fieldSelection.C at line 166
    Field omega not found
--> FOAM Warning : 
    From virtual bool Foam::functionObjects::fieldSelection::checkSelection()
    in file functionObjects/fieldSelections/fieldSelection/fieldSelection.C at line 166
    Field ReThetat not found
--> FOAM Warning : 
    From virtual bool Foam::functionObjects::fieldSelection::checkSelection()
    in file functionObjects/fieldSelections/fieldSelection/fieldSelection.C at line 166
    Field epsilon not found
--> FOAM Warning : 
    From virtual bool Foam::functionObjects::solverFieldSelection::updateSelection()
    in file functionObjects/fieldSelections/solverFieldSelection/solverFieldSelection.C at line 85
    Valid solver fields are: 3(U nuTilda p)Time = 2

velocityDampingConstraint velocityDamping damped 0 (0%) of cells, with max limit 300
[OGL LOG][Proc: 0]: global_index_init: 0.83 [ms]
[OGL LOG][Proc: 0]Ux_local_coeffs: call_update: 0.001 [ms]
[OGL LOG][Proc: 0]Ux_non_local_coeffs: call_update: 0 [ms]
[OGL LOG][Proc: 0]Ux: update_local_matrix_data: 194.554 [ms]
[OGL LOG][Proc: 0]Ux: update_non_local_matrix_data: 2.296 [ms]
[OGL LOG][Proc: 0]Ux_matrix: call_update: 4.995 [ms]
[OGL LOG][Proc: 0]Ux_rhs: call_update: 8.962999999999999 [ms]
[OGL LOG][Preconditioner.H:121] Generate preconditioner BJ MaxBlockSize 1
[OGL LOG][Proc: 0]Ux: init_precond: 2.209 [ms]
[OGL LOG][StoppingCriterion.H:239] Creating stopping criterion with minIter 8 frequency 1
[OGL LOG][Proc: 0]Ux: generate_solver: 0.016 [ms]
[OGL LOG][Proc: 0]Ux: solve: 204.4 [ms]
[OGL LOG][Proc: 0]Ux: copy_x_back: 11.56 [ms]
[OGL LOG][lduLduBase.H:330] 
Statistics:
	Time per iteration: 51100 [mu s]
	Time per residual norm calculation: 1715.000000 [mu s]
	Time per iteration and DOF: 1.012742 [ns]
	Retrieve results bandwidth 2.602000 [GByte/s]
[OGL LOG][Proc: 0]Ux: solve_multi_gpu: 250.822 [ms]
BJcudaGKOBiCGStab:  Solving for Ux, Initial residual = 0.8165051210635063, Final residual = 0.009475892644549618, No Iterations 4
[OGL LOG][Proc: 0]: global_index_init: 0.593 [ms]
[OGL LOG][Proc: 0]Uy_local_coeffs: call_update: 0 [ms]
[OGL LOG][Proc: 0]Uy_non_local_coeffs: call_update: 0 [ms]
[OGL LOG][Proc: 0]Uy: update_local_matrix_data: 186.3 [ms]
[OGL LOG][Proc: 0]Uy: update_non_local_matrix_data: 2.313 [ms]
[OGL LOG][Proc: 0]Uy_matrix: call_update: 4.728 [ms]
[OGL LOG][Proc: 0]Uy_rhs: call_update: 4.309 [ms]
[OGL LOG][Preconditioner.H:121] Generate preconditioner BJ MaxBlockSize 1
[OGL LOG][Proc: 0]Uy: init_precond: 2.067 [ms]
[OGL LOG][StoppingCriterion.H:239] Creating stopping criterion with minIter 12 frequency 1
[OGL LOG][Proc: 0]Uy: generate_solver: 0.014 [ms]
[OGL LOG][Proc: 0]Uy: solve: 212.849 [ms]
[OGL LOG][Proc: 0]Uy: copy_x_back: 11.364 [ms]
[OGL LOG][lduLduBase.H:330] 
Statistics:
	Time per iteration: 30407 [mu s]
	Time per residual norm calculation: 1632.000000 [mu s]
	Time per iteration and DOF: 0.602631 [ns]
	Retrieve results bandwidth 2.647000 [GByte/s]
[OGL LOG][Proc: 0]Uy: solve_multi_gpu: 255.185 [ms]
BJcudaGKOBiCGStab:  Solving for Uy, Initial residual = 0.9993889480880178, Final residual = 0.002355838105522307, No Iterations 7
[OGL LOG][Proc: 0]: global_index_init: 0.591 [ms]
[OGL LOG][Proc: 0]Uz_local_coeffs: call_update: 0 [ms]
[OGL LOG][Proc: 0]Uz_non_local_coeffs: call_update: 0 [ms]
[OGL LOG][Proc: 0]Uz: update_local_matrix_data: 187.65 [ms]
[OGL LOG][Proc: 0]Uz: update_non_local_matrix_data: 2.422 [ms]
[OGL LOG][Proc: 0]Uz_matrix: call_update: 4.635 [ms]
[OGL LOG][Proc: 0]Uz_rhs: call_update: 4.35 [ms]
[OGL LOG][Preconditioner.H:121] Generate preconditioner BJ MaxBlockSize 1
[OGL LOG][Proc: 0]Uz: init_precond: 2.511 [ms]
[OGL LOG][StoppingCriterion.H:239] Creating stopping criterion with minIter 1 frequency 1
[OGL LOG][Proc: 0]Uz: generate_solver: 0.015 [ms]
[OGL LOG][Proc: 0]Uz: solve: 170.003 [ms]
[OGL LOG][Proc: 0]Uz: copy_x_back: 11.258 [ms]
[OGL LOG][lduLduBase.H:330] 
Statistics:
	Time per iteration: 85001 [mu s]
	Time per residual norm calculation: 1560.000000 [mu s]
	Time per iteration and DOF: 1.684620 [ns]
	Retrieve results bandwidth 2.672000 [GByte/s]
[OGL LOG][Proc: 0]Uz: solve_multi_gpu: 211.902 [ms]
BJcudaGKOBiCGStab:  Solving for Uz, Initial residual = 0.9999845877492846, Final residual = 0.09493591611523415, No Iterations 2
[OGL LOG][Proc: 0]: global_index_init: 0.19 [ms]
[OGL LOG][Proc: 0]p_local_coeffs: call_update: 0 [ms]
[OGL LOG][Proc: 0]p_non_local_coeffs: call_update: 0 [ms]
[OGL LOG][Proc: 0]p: update_local_matrix_data: 142.081 [ms]
[OGL LOG][Proc: 0]p: update_non_local_matrix_data: 2.308 [ms]
[OGL LOG][Proc: 0]p_matrix: call_update: 4.469 [ms]
[OGL LOG][Proc: 0]p_rhs: call_update: 4.411 [ms]
[OGL LOG][Preconditioner.H:346] Generate preconditioner Multigrid MaxLevels 9 MinCoarseRows 10 ZeroGuess 1 Cycle v
[OGL LOG][Proc: 0]p: init_precond: 838.783 [ms]
[OGL LOG][StoppingCriterion.H:239] Creating stopping criterion with minIter 78 frequency 1
[OGL LOG][Proc: 0]p: generate_solver: 0.011 [ms]
[OGL LOG][Proc: 0]p: solve: 2008.143 [ms]
[OGL LOG][Proc: 0]p: copy_x_back: 10.969 [ms]
[OGL LOG][lduLduBase.H:330] 
Statistics:
	Time per iteration: 25419 [mu s]
	Time per residual norm calculation: 1311.000000 [mu s]
	Time per iteration and DOF: 0.503775 [ns]
	Retrieve results bandwidth 2.742000 [GByte/s]
[OGL LOG][Proc: 0]p: solve_multi_gpu: 2923.064 [ms]
MultigridcudaGKOCG:  Solving for p, Initial residual = 0.4290423605351164, Final residual = 0.003235911985920268, No Iterations 79
time step continuity errors : sum local = 0.07023980730159751, global = 0.01339037842660418, cumulative = 0.01348301143118697
[OGL LOG][Proc: 0]: global_index_init: 12.052 [ms]
[OGL LOG][Proc: 0]nuTilda_local_coeffs: call_update: 0 [ms]
[OGL LOG][Proc: 0]nuTilda_non_local_coeffs: call_update: 0 [ms]
[OGL LOG][Proc: 0]nuTilda: update_local_matrix_data: 177.784 [ms]
[OGL LOG][Proc: 0]nuTilda: update_non_local_matrix_data: 2.754 [ms]
[OGL LOG][Proc: 0]nuTilda_matrix: call_update: 4.993 [ms]
[OGL LOG][Proc: 0]nuTilda_rhs: call_update: 3.993 [ms]
[OGL LOG][Preconditioner.H:121] Generate preconditioner BJ MaxBlockSize 1
[OGL LOG][Proc: 0]nuTilda: init_precond: 2.05 [ms]
[OGL LOG][StoppingCriterion.H:239] Creating stopping criterion with minIter 3 frequency 1
[OGL LOG][Proc: 0]nuTilda: generate_solver: 0.021 [ms]
[OGL LOG][Proc: 0]nuTilda: solve: 166.768 [ms]
[OGL LOG][Proc: 0]nuTilda: copy_x_back: 10.539 [ms]
[OGL LOG][lduLduBase.H:330] 
Statistics:
	Time per iteration: 83384 [mu s]
	Time per residual norm calculation: 1635.000000 [mu s]
	Time per iteration and DOF: 1.652573 [ns]
	Retrieve results bandwidth 2.854000 [GByte/s]
[OGL LOG][Proc: 0]nuTilda: solve_multi_gpu: 215.617 [ms]
BJcudaGKOBiCGStab:  Solving for nuTilda, Initial residual = 0.2440153996551621, Final residual = 0.01640826124170017, No Iterations 2
ExecutionTime = 934.33 s  ClockTime = 955 s

Time = 3

velocityDampingConstraint velocityDamping damped 38920 (0.08%) of cells, with max limit 300
[OGL LOG][Proc: 0]: global_index_init: 0.513 [ms]
[OGL LOG][Proc: 0]Ux_local_coeffs: call_update: 0 [ms]
[OGL LOG][Proc: 0]Ux_non_local_coeffs: call_update: 0 [ms]
[OGL LOG][Proc: 0]Ux: update_local_matrix_data: 202.054 [ms]
[OGL LOG][Proc: 0]Ux: update_non_local_matrix_data: 2.289 [ms]
[OGL LOG][Proc: 0]Ux_matrix: call_update: 4.982 [ms]
[OGL LOG][Proc: 0]Ux_rhs: call_update: 3.937 [ms]
[OGL LOG][Preconditioner.H:121] Generate preconditioner BJ MaxBlockSize 1
[OGL LOG][Proc: 0]Ux: init_precond: 2.797 [ms]
[OGL LOG][StoppingCriterion.H:239] Creating stopping criterion with minIter 5 frequency 1
[OGL LOG][Proc: 0]Ux: generate_solver: 0.021 [ms]
[OGL LOG][Proc: 0]Ux: solve: 193.367 [ms]
[OGL LOG][Proc: 0]Ux: copy_x_back: 11.049 [ms]
[OGL LOG][lduLduBase.H:330] 
Statistics:
	Time per iteration: 64455 [mu s]
	Time per residual norm calculation: 1860.000000 [mu s]
	Time per iteration and DOF: 1.277422 [ns]
	Retrieve results bandwidth 2.722000 [GByte/s]
[OGL LOG][Proc: 0]Ux: solve_multi_gpu: 220.475 [ms]
BJcudaGKOBiCGStab:  Solving for Ux, Initial residual = 0.2929754575851061, Final residual = 0.004987655767286182, No Iterations 3
[OGL LOG][Proc: 0]: global_index_init: 0.574 [ms]
[OGL LOG][Proc: 0]Uy_local_coeffs: call_update: 0 [ms]
[OGL LOG][Proc: 0]Uy_non_local_coeffs: call_update: 0 [ms]
[OGL LOG][Proc: 0]Uy: update_local_matrix_data: 187.311 [ms]
[OGL LOG][Proc: 0]Uy: update_non_local_matrix_data: 2.377 [ms]
[OGL LOG][Proc: 0]Uy_matrix: call_update: 4.665 [ms]
[OGL LOG][Proc: 0]Uy_rhs: call_update: 8.967000000000001 [ms]
[OGL LOG][Preconditioner.H:121] Generate preconditioner BJ MaxBlockSize 1
[OGL LOG][Proc: 0]Uy: init_precond: 2.317 [ms]
[OGL LOG][StoppingCriterion.H:239] Creating stopping criterion with minIter 8 frequency 1
[OGL LOG][Proc: 0]Uy: generate_solver: 0.015 [ms]
[OGL LOG][Proc: 0]Uy: solve: 198.386 [ms]
[OGL LOG][Proc: 0]Uy: copy_x_back: 11.203 [ms]
[OGL LOG][lduLduBase.H:330] 
Statistics:
	Time per iteration: 49596 [mu s]
	Time per residual norm calculation: 1555.000000 [mu s]
	Time per iteration and DOF: 0.982934 [ns]
	Retrieve results bandwidth 2.685000 [GByte/s]
[OGL LOG][Proc: 0]Uy: solve_multi_gpu: 248.823 [ms]
BJcudaGKOBiCGStab:  Solving for Uy, Initial residual = 0.2826253024895536, Final residual = 0.006277482576490908, No Iterations 4
[OGL LOG][Proc: 0]: global_index_init: 0.551 [ms]
[OGL LOG][Proc: 0]Uz_local_coeffs: call_update: 0 [ms]
[OGL LOG][Proc: 0]Uz_non_local_coeffs: call_update: 0 [ms]
[OGL LOG][Proc: 0]Uz: update_local_matrix_data: 187.512 [ms]
[OGL LOG][Proc: 0]Uz: update_non_local_matrix_data: 2.323 [ms]
[OGL LOG][Proc: 0]Uz_matrix: call_update: 4.686 [ms]
[OGL LOG][Proc: 0]Uz_rhs: call_update: 5.267 [ms]
[OGL LOG][Preconditioner.H:121] Generate preconditioner BJ MaxBlockSize 1
[OGL LOG][Proc: 0]Uz: init_precond: 2.098 [ms]
[OGL LOG][StoppingCriterion.H:239] Creating stopping criterion with minIter 2 frequency 1
[OGL LOG][Proc: 0]Uz: generate_solver: 0.014 [ms]
[OGL LOG][Proc: 0]Uz: solve: 177.418 [ms]
[OGL LOG][Proc: 0]Uz: copy_x_back: 11.068 [ms]
[OGL LOG][lduLduBase.H:330] 
Statistics:
	Time per iteration: 88709 [mu s]
	Time per residual norm calculation: 1510.000000 [mu s]
	Time per iteration and DOF: 1.758108 [ns]
	Retrieve results bandwidth 2.717000 [GByte/s]
[OGL LOG][Proc: 0]Uz: solve_multi_gpu: 222.882 [ms]
BJcudaGKOBiCGStab:  Solving for Uz, Initial residual = 0.2509630565585694, Final residual = 0.02480093366666059, No Iterations 2
[OGL LOG][Proc: 0]: global_index_init: 0.049 [ms]
[OGL LOG][Proc: 0]p_local_coeffs: call_update: 0 [ms]
[OGL LOG][Proc: 0]p_non_local_coeffs: call_update: 0 [ms]
[OGL LOG][Proc: 0]p: update_local_matrix_data: 142.51 [ms]
[OGL LOG][Proc: 0]p: update_non_local_matrix_data: 2.369 [ms]
[OGL LOG][Proc: 0]p_matrix: call_update: 4.549 [ms]
[OGL LOG][Proc: 0]p_rhs: call_update: 4.14 [ms]
[OGL LOG][Preconditioner.H:346] Generate preconditioner Multigrid MaxLevels 9 MinCoarseRows 10 ZeroGuess 1 Cycle v
[OGL LOG][Proc: 0]p: init_precond: 883.071 [ms]
[OGL LOG][StoppingCriterion.H:239] Creating stopping criterion with minIter 47 frequency 1
[OGL LOG][Proc: 0]p: generate_solver: 0.01 [ms]
[OGL LOG][Proc: 0]p: solve: 2513.443 [ms]
[OGL LOG][Proc: 0]p: copy_x_back: 11.874 [ms]
[OGL LOG][lduLduBase.H:330] 
Statistics:
	Time per iteration: 24167 [mu s]
	Time per residual norm calculation: 1312.000000 [mu s]
	Time per iteration and DOF: 0.478961 [ns]
	Retrieve results bandwidth 2.533000 [GByte/s]
[OGL LOG][Proc: 0]p: solve_multi_gpu: 3474.085 [ms]
MultigridcudaGKOCG:  Solving for p, Initial residual = 0.3611526948436576, Final residual = 0.003156989867996983, No Iterations 104
time step continuity errors : sum local = 0.02035709722860903, global = 0.0002761617153524943, cumulative = 0.01375917314653946
[OGL LOG][Proc: 0]: global_index_init: 11.077 [ms]
[OGL LOG][Proc: 0]nuTilda_local_coeffs: call_update: 0 [ms]
[OGL LOG][Proc: 0]nuTilda_non_local_coeffs: call_update: 0 [ms]
[OGL LOG][Proc: 0]nuTilda: update_local_matrix_data: 196.256 [ms]
[OGL LOG][Proc: 0]nuTilda: update_non_local_matrix_data: 2.292 [ms]
[OGL LOG][Proc: 0]nuTilda_matrix: call_update: 3.378 [ms]
[OGL LOG][Proc: 0]nuTilda_rhs: call_update: 5.287 [ms]
[OGL LOG][Preconditioner.H:121] Generate preconditioner BJ MaxBlockSize 1
[OGL LOG][Proc: 0]nuTilda: init_precond: 2.088 [ms]
[OGL LOG][StoppingCriterion.H:239] Creating stopping criterion with minIter 3 frequency 1
[OGL LOG][Proc: 0]nuTilda: generate_solver: 0.015 [ms]
[OGL LOG][Proc: 0]nuTilda: solve: 159.811 [ms]
[OGL LOG][Proc: 0]nuTilda: copy_x_back: 10.236 [ms]
[OGL LOG][lduLduBase.H:330] 
Statistics:
	Time per iteration: 79905 [mu s]
	Time per residual norm calculation: 1851.000000 [mu s]
	Time per iteration and DOF: 1.583623 [ns]
	Retrieve results bandwidth 2.938000 [GByte/s]
[OGL LOG][Proc: 0]nuTilda: solve_multi_gpu: 186.218 [ms]
BJcudaGKOBiCGStab:  Solving for nuTilda, Initial residual = 0.2254992648983462, Final residual = 0.0128388119373188, No Iterations 2
ExecutionTime = 953.58 s  ClockTime = 974 s

Time = 4

velocityDampingConstraint velocityDamping damped 863 (0%) of cells, with max limit 300
[OGL LOG][Proc: 0]: global_index_init: 0.743 [ms]
[OGL LOG][Proc: 0]Ux_local_coeffs: call_update: 0 [ms]
[OGL LOG][Proc: 0]Ux_non_local_coeffs: call_update: 0 [ms]
[OGL LOG][Proc: 0]Ux: update_local_matrix_data: 189.116 [ms]
[OGL LOG][Proc: 0]Ux: update_non_local_matrix_data: 2.267 [ms]
[OGL LOG][Proc: 0]Ux_matrix: call_update: 4.959 [ms]
[OGL LOG][Proc: 0]Ux_rhs: call_update: 8.771000000000001 [ms]
[OGL LOG][Preconditioner.H:121] Generate preconditioner BJ MaxBlockSize 1
[OGL LOG][Proc: 0]Ux: init_precond: 2.384 [ms]
[OGL LOG][StoppingCriterion.H:239] Creating stopping criterion with minIter 3 frequency 1
[OGL LOG][Proc: 0]Ux: generate_solver: 0.014 [ms]
[OGL LOG][Proc: 0]Ux: solve: 210.874 [ms]
[OGL LOG][Proc: 0]Ux: copy_x_back: 11.114 [ms]
[OGL LOG][lduLduBase.H:330] 
Statistics:
	Time per iteration: 42174 [mu s]
	Time per residual norm calculation: 1893.000000 [mu s]
	Time per iteration and DOF: 0.835839 [ns]
	Retrieve results bandwidth 2.706000 [GByte/s]
[OGL LOG][Proc: 0]Ux: solve_multi_gpu: 259.211 [ms]
BJcudaGKOBiCGStab:  Solving for Ux, Initial residual = 0.04813872692629402, Final residual = 0.0009764576652077216, No Iterations 5
[OGL LOG][Proc: 0]: global_index_init: 0.586 [ms]
[OGL LOG][Proc: 0]Uy_local_coeffs: call_update: 0 [ms]
[OGL LOG][Proc: 0]Uy_non_local_coeffs: call_update: 0 [ms]
[OGL LOG][Proc: 0]Uy: update_local_matrix_data: 187.299 [ms]
[OGL LOG][Proc: 0]Uy: update_non_local_matrix_data: 2.192 [ms]
[OGL LOG][Proc: 0]Uy_matrix: call_update: 4.561 [ms]
[OGL LOG][Proc: 0]Uy_rhs: call_update: 4.208 [ms]
[OGL LOG][Preconditioner.H:121] Generate preconditioner BJ MaxBlockSize 1
[OGL LOG][Proc: 0]Uy: init_precond: 2.045 [ms]
[OGL LOG][StoppingCriterion.H:239] Creating stopping criterion with minIter 5 frequency 1
[OGL LOG][Proc: 0]Uy: generate_solver: 0.014 [ms]
[OGL LOG][Proc: 0]Uy: solve: 194.554 [ms]
[OGL LOG][Proc: 0]Uy: copy_x_back: 11.832 [ms]
[OGL LOG][lduLduBase.H:330] 
Statistics:
	Time per iteration: 48638 [mu s]
	Time per residual norm calculation: 1279.000000 [mu s]
	Time per iteration and DOF: 0.963948 [ns]
	Retrieve results bandwidth 2.542000 [GByte/s]
[OGL LOG][Proc: 0]Uy: solve_multi_gpu: 234.568 [ms]
BJcudaGKOBiCGStab:  Solving for Uy, Initial residual = 0.1238287243819731, Final residual = 0.006003873228413555, No Iterations 4
[OGL LOG][Proc: 0]: global_index_init: 0.579 [ms]
[OGL LOG][Proc: 0]Uz_local_coeffs: call_update: 0 [ms]
[OGL LOG][Proc: 0]Uz_non_local_coeffs: call_update: 0 [ms]
[OGL LOG][Proc: 0]Uz: update_local_matrix_data: 188.223 [ms]
[OGL LOG][Proc: 0]Uz: update_non_local_matrix_data: 2.179 [ms]
[OGL LOG][Proc: 0]Uz_matrix: call_update: 4.608 [ms]
[OGL LOG][Proc: 0]Uz_rhs: call_update: 4.187 [ms]
[OGL LOG][Preconditioner.H:121] Generate preconditioner BJ MaxBlockSize 1
[OGL LOG][Proc: 0]Uz: init_precond: 1.985 [ms]
[OGL LOG][StoppingCriterion.H:239] Creating stopping criterion with minIter 3 frequency 1
[OGL LOG][Proc: 0]Uz: generate_solver: 0.015 [ms]
[OGL LOG][Proc: 0]Uz: solve: 176.956 [ms]
[OGL LOG][Proc: 0]Uz: copy_x_back: 10.717 [ms]
[OGL LOG][lduLduBase.H:330] 
Statistics:
	Time per iteration: 58985 [mu s]
	Time per residual norm calculation: 1561.000000 [mu s]
	Time per iteration and DOF: 1.169013 [ns]
	Retrieve results bandwidth 2.806000 [GByte/s]
[OGL LOG][Proc: 0]Uz: solve_multi_gpu: 216.112 [ms]
BJcudaGKOBiCGStab:  Solving for Uz, Initial residual = 0.1053699337268175, Final residual = 0.01011450050102978, No Iterations 3
[OGL LOG][Proc: 0]: global_index_init: 0.018 [ms]
[OGL LOG][Proc: 0]p_local_coeffs: call_update: 0 [ms]
[OGL LOG][Proc: 0]p_non_local_coeffs: call_update: 0 [ms]
[OGL LOG][Proc: 0]p: update_local_matrix_data: 142.463 [ms]
[OGL LOG][Proc: 0]p: update_non_local_matrix_data: 2.219 [ms]
[OGL LOG][Proc: 0]p_matrix: call_update: 4.465 [ms]
[OGL LOG][Proc: 0]p_rhs: call_update: 4.314 [ms]
[OGL LOG][Preconditioner.H:346] Generate preconditioner Multigrid MaxLevels 9 MinCoarseRows 10 ZeroGuess 1 Cycle v
[OGL LOG][Proc: 0]p: init_precond: 845.053 [ms]
[OGL LOG][StoppingCriterion.H:239] Creating stopping criterion with minIter 62 frequency 1
[OGL LOG][Proc: 0]p: generate_solver: 0.01 [ms]
[OGL LOG][Proc: 0]p: solve: 1640.442 [ms]
[OGL LOG][Proc: 0]p: copy_x_back: 11.202 [ms]
[OGL LOG][lduLduBase.H:330] 
Statistics:
	Time per iteration: 26038 [mu s]
	Time per residual norm calculation: 1460.000000 [mu s]
	Time per iteration and DOF: 0.516042 [ns]
	Retrieve results bandwidth 2.685000 [GByte/s]
[OGL LOG][Proc: 0]p: solve_multi_gpu: 2561.774 [ms]
MultigridcudaGKOCG:  Solving for p, Initial residual = 0.6567796138055997, Final residual = 0.002393220943491082, No Iterations 63
time step continuity errors : sum local = 0.04031584384787575, global = 0.001676229300112611, cumulative = 0.01543540244665207
[OGL LOG][Proc: 0]: global_index_init: 11.454 [ms]
[OGL LOG][Proc: 0]nuTilda_local_coeffs: call_update: 0 [ms]
[OGL LOG][Proc: 0]nuTilda_non_local_coeffs: call_update: 0 [ms]
[OGL LOG][Proc: 0]nuTilda: update_local_matrix_data: 177.089 [ms]
[OGL LOG][Proc: 0]nuTilda: update_non_local_matrix_data: 2.211 [ms]
[OGL LOG][Proc: 0]nuTilda_matrix: call_update: 4.7 [ms]
[OGL LOG][Proc: 0]nuTilda_rhs: call_update: 4.022 [ms]
[OGL LOG][Preconditioner.H:121] Generate preconditioner BJ MaxBlockSize 1
[OGL LOG][Proc: 0]nuTilda: init_precond: 2.246 [ms]
[OGL LOG][StoppingCriterion.H:239] Creating stopping criterion with minIter 2 frequency 1
[OGL LOG][Proc: 0]nuTilda: generate_solver: 0.014 [ms]
[OGL LOG][Proc: 0]nuTilda: solve: 170.521 [ms]
[OGL LOG][Proc: 0]nuTilda: copy_x_back: 10.457 [ms]
[OGL LOG][lduLduBase.H:330] 
Statistics:
	Time per iteration: 85260 [mu s]
	Time per residual norm calculation: 1554.000000 [mu s]
	Time per iteration and DOF: 1.689753 [ns]
	Retrieve results bandwidth 2.876000 [GByte/s]
[OGL LOG][Proc: 0]nuTilda: solve_multi_gpu: 215.716 [ms]
BJcudaGKOBiCGStab:  Solving for nuTilda, Initial residual = 0.1471221393541045, Final residual = 0.01158754543088746, No Iterations 2
ExecutionTime = 972.13 s  ClockTime = 993 s

Time = 5

velocityDampingConstraint velocityDamping damped 32783 (0.06%) of cells, with max limit 300
[OGL LOG][Proc: 0]: global_index_init: 0.989 [ms]
[OGL LOG][Proc: 0]Ux_local_coeffs: call_update: 0 [ms]
[OGL LOG][Proc: 0]Ux_non_local_coeffs: call_update: 0 [ms]
[OGL LOG][Proc: 0]Ux: update_local_matrix_data: 196.073 [ms]
[OGL LOG][Proc: 0]Ux: update_non_local_matrix_data: 2.199 [ms]
[OGL LOG][Proc: 0]Ux_matrix: call_update: 4.852 [ms]
[OGL LOG][Proc: 0]Ux_rhs: call_update: 8.832000000000001 [ms]
[OGL LOG][Preconditioner.H:121] Generate preconditioner BJ MaxBlockSize 1
[OGL LOG][Proc: 0]Ux: init_precond: 2.299 [ms]
[OGL LOG][StoppingCriterion.H:239] Creating stopping criterion with minIter 6 frequency 1
[OGL LOG][Proc: 0]Ux: generate_solver: 0.015 [ms]
[OGL LOG][Proc: 0]Ux: solve: 193.043 [ms]
[OGL LOG][Proc: 0]Ux: copy_x_back: 10.735 [ms]
[OGL LOG][lduLduBase.H:330] 
Statistics:
	Time per iteration: 64347 [mu s]
	Time per residual norm calculation: 1574.000000 [mu s]
	Time per iteration and DOF: 1.275282 [ns]
	Retrieve results bandwidth 2.802000 [GByte/s]
[OGL LOG][Proc: 0]Ux: solve_multi_gpu: 235.238 [ms]
BJcudaGKOBiCGStab:  Solving for Ux, Initial residual = 0.322883732634543, Final residual = 0.01118588306083536, No Iterations 3
[OGL LOG][Proc: 0]: global_index_init: 0.556 [ms]
[OGL LOG][Proc: 0]Uy_local_coeffs: call_update: 0 [ms]
[OGL LOG][Proc: 0]Uy_non_local_coeffs: call_update: 0 [ms]
[OGL LOG][Proc: 0]Uy: update_local_matrix_data: 187.171 [ms]
[OGL LOG][Proc: 0]Uy: update_non_local_matrix_data: 2.094 [ms]
[OGL LOG][Proc: 0]Uy_matrix: call_update: 4.601 [ms]
[OGL LOG][Proc: 0]Uy_rhs: call_update: 6.243 [ms]
[OGL LOG][Preconditioner.H:121] Generate preconditioner BJ MaxBlockSize 1
[OGL LOG][Proc: 0]Uy: init_precond: 2.077 [ms]
[OGL LOG][StoppingCriterion.H:239] Creating stopping criterion with minIter 4 frequency 1
[OGL LOG][Proc: 0]Uy: generate_solver: 0.015 [ms]
[OGL LOG][Proc: 0]Uy: solve: 178.764 [ms]
[OGL LOG][Proc: 0]Uy: copy_x_back: 11.02 [ms]
[OGL LOG][lduLduBase.H:330] 
Statistics:
	Time per iteration: 59588 [mu s]
	Time per residual norm calculation: 1683.000000 [mu s]
	Time per iteration and DOF: 1.180964 [ns]
	Retrieve results bandwidth 2.729000 [GByte/s]
[OGL LOG][Proc: 0]Uy: solve_multi_gpu: 223.155 [ms]
BJcudaGKOBiCGStab:  Solving for Uy, Initial residual = 0.2882410042800808, Final residual = 0.02532238135574158, No Iterations 3
[OGL LOG][Proc: 0]: global_index_init: 0.612 [ms]
[OGL LOG][Proc: 0]Uz_local_coeffs: call_update: 0 [ms]
[OGL LOG][Proc: 0]Uz_non_local_coeffs: call_update: 0 [ms]
[OGL LOG][Proc: 0]Uz: update_local_matrix_data: 186.549 [ms]
[OGL LOG][Proc: 0]Uz: update_non_local_matrix_data: 2.179 [ms]
[OGL LOG][Proc: 0]Uz_matrix: call_update: 4.869 [ms]
[OGL LOG][Proc: 0]Uz_rhs: call_update: 3.969 [ms]
[OGL LOG][Preconditioner.H:121] Generate preconditioner BJ MaxBlockSize 1
[OGL LOG][Proc: 0]Uz: init_precond: 2.106 [ms]
[OGL LOG][StoppingCriterion.H:239] Creating stopping criterion with minIter 3 frequency 1
[OGL LOG][Proc: 0]Uz: generate_solver: 0.014 [ms]
[OGL LOG][Proc: 0]Uz: solve: 189.77 [ms]
[OGL LOG][Proc: 0]Uz: copy_x_back: 10.878 [ms]
[OGL LOG][lduLduBase.H:330] 
Statistics:
	Time per iteration: 47442 [mu s]
	Time per residual norm calculation: 1802.000000 [mu s]
	Time per iteration and DOF: 0.940245 [ns]
	Retrieve results bandwidth 2.765000 [GByte/s]
[OGL LOG][Proc: 0]Uz: solve_multi_gpu: 231.094 [ms]
BJcudaGKOBiCGStab:  Solving for Uz, Initial residual = 0.7264171646682007, Final residual = 0.02818567811026259, No Iterations 4
[OGL LOG][Proc: 0]: global_index_init: 0.198 [ms]
[OGL LOG][Proc: 0]p_local_coeffs: call_update: 0 [ms]
[OGL LOG][Proc: 0]p_non_local_coeffs: call_update: 0 [ms]
[OGL LOG][Proc: 0]p: update_local_matrix_data: 131.932 [ms]
[OGL LOG][Proc: 0]p: update_non_local_matrix_data: 2.23 [ms]
[OGL LOG][Proc: 0]p_matrix: call_update: 4.517 [ms]
[OGL LOG][Proc: 0]p_rhs: call_update: 4.378 [ms]
[OGL LOG][Preconditioner.H:346] Generate preconditioner Multigrid MaxLevels 9 MinCoarseRows 10 ZeroGuess 1 Cycle v
[OGL LOG][Proc: 0]p: init_precond: 868.188 [ms]
[OGL LOG][StoppingCriterion.H:239] Creating stopping criterion with minIter 37 frequency 1
[OGL LOG][Proc: 0]p: generate_solver: 0.008999999999999999 [ms]
[OGL LOG][Proc: 0]p: solve: 2118.582 [ms]
[OGL LOG][Proc: 0]p: copy_x_back: 10.545 [ms]
[OGL LOG][lduLduBase.H:330] 
Statistics:
	Time per iteration: 24351 [mu s]
	Time per residual norm calculation: 1309.000000 [mu s]
	Time per iteration and DOF: 0.482608 [ns]
	Retrieve results bandwidth 2.852000 [GByte/s]
[OGL LOG][Proc: 0]p: solve_multi_gpu: 3071.75 [ms]
MultigridcudaGKOCG:  Solving for p, Initial residual = 0.4432601068305485, Final residual = 0.004102729726569247, No Iterations 87
time step continuity errors : sum local = 0.05963824989070073, global = -0.002944670525631655, cumulative = 0.01249073192102042
[OGL LOG][Proc: 0]: global_index_init: 14.993 [ms]
[OGL LOG][Proc: 0]nuTilda_local_coeffs: call_update: 0 [ms]
[OGL LOG][Proc: 0]nuTilda_non_local_coeffs: call_update: 0 [ms]
[OGL LOG][Proc: 0]nuTilda: update_local_matrix_data: 179.537 [ms]
[OGL LOG][Proc: 0]nuTilda: update_non_local_matrix_data: 2.118 [ms]
[OGL LOG][Proc: 0]nuTilda_matrix: call_update: 3.181 [ms]
[OGL LOG][Proc: 0]nuTilda_rhs: call_update: 15.247 [ms]
[OGL LOG][Preconditioner.H:121] Generate preconditioner BJ MaxBlockSize 1
[OGL LOG][Proc: 0]nuTilda: init_precond: 3.082 [ms]
[OGL LOG][StoppingCriterion.H:239] Creating stopping criterion with minIter 3 frequency 1
[OGL LOG][Proc: 0]nuTilda: generate_solver: 0.023 [ms]
[OGL LOG][Proc: 0]nuTilda: solve: 196.009 [ms]
[OGL LOG][Proc: 0]nuTilda: copy_x_back: 10.124 [ms]
[OGL LOG][lduLduBase.H:330] 
Statistics:
	Time per iteration: 98004 [mu s]
	Time per residual norm calculation: 1656.000000 [mu s]
	Time per iteration and DOF: 1.942324 [ns]
	Retrieve results bandwidth 2.971000 [GByte/s]
[OGL LOG][Proc: 0]nuTilda: solve_multi_gpu: 252.969 [ms]
BJcudaGKOBiCGStab:  Solving for nuTilda, Initial residual = 0.09467858419832156, Final residual = 0.006794963370466056, No Iterations 2
ExecutionTime = 991.02 s  ClockTime = 1012 s

Time = 6

velocityDampingConstraint velocityDamping damped 2507 (0%) of cells, with max limit 300
[OGL LOG][Proc: 0]: global_index_init: 3.882 [ms]
[OGL LOG][Proc: 0]Ux_local_coeffs: call_update: 0 [ms]
[OGL LOG][Proc: 0]Ux_non_local_coeffs: call_update: 0 [ms]
[OGL LOG][Proc: 0]Ux: update_local_matrix_data: 188.933 [ms]
[OGL LOG][Proc: 0]Ux: update_non_local_matrix_data: 2.335 [ms]
[OGL LOG][Proc: 0]Ux_matrix: call_update: 4.859 [ms]
[OGL LOG][Proc: 0]Ux_rhs: call_update: 5.442 [ms]
[OGL LOG][Preconditioner.H:121] Generate preconditioner BJ MaxBlockSize 1
[OGL LOG][Proc: 0]Ux: init_precond: 1.242 [ms]
[OGL LOG][StoppingCriterion.H:239] Creating stopping criterion with minIter 4 frequency 1
[OGL LOG][Proc: 0]Ux: generate_solver: 0.019 [ms]
[OGL LOG][Proc: 0]Ux: solve: 196.711 [ms]
[OGL LOG][Proc: 0]Ux: copy_x_back: 10.793 [ms]
[OGL LOG][lduLduBase.H:330] 
Statistics:
	Time per iteration: 65570 [mu s]
	Time per residual norm calculation: 1565.000000 [mu s]
	Time per iteration and DOF: 1.299520 [ns]
	Retrieve results bandwidth 2.787000 [GByte/s]
[OGL LOG][Proc: 0]Ux: solve_multi_gpu: 245.245 [ms]
BJcudaGKOBiCGStab:  Solving for Ux, Initial residual = 0.1285928769500326, Final residual = 0.009987724795433073, No Iterations 3
[OGL LOG][Proc: 0]: global_index_init: 0.599 [ms]
[OGL LOG][Proc: 0]Uy_local_coeffs: call_update: 0 [ms]
[OGL LOG][Proc: 0]Uy_non_local_coeffs: call_update: 0 [ms]
[OGL LOG][Proc: 0]Uy: update_local_matrix_data: 187.318 [ms]
[OGL LOG][Proc: 0]Uy: update_non_local_matrix_data: 2.347 [ms]
[OGL LOG][Proc: 0]Uy_matrix: call_update: 4.77 [ms]
[OGL LOG][Proc: 0]Uy_rhs: call_update: 7.59 [ms]
[OGL LOG][Preconditioner.H:121] Generate preconditioner BJ MaxBlockSize 1
[OGL LOG][Proc: 0]Uy: init_precond: 2.201 [ms]
[OGL LOG][StoppingCriterion.H:239] Creating stopping criterion with minIter 3 frequency 1
[OGL LOG][Proc: 0]Uy: generate_solver: 0.016 [ms]
[OGL LOG][Proc: 0]Uy: solve: 217.35 [ms]
[OGL LOG][Proc: 0]Uy: copy_x_back: 11.23 [ms]
[OGL LOG][lduLduBase.H:330] 
Statistics:
	Time per iteration: 72450 [mu s]
	Time per residual norm calculation: 1810.000000 [mu s]
	Time per iteration and DOF: 1.435874 [ns]
	Retrieve results bandwidth 2.678000 [GByte/s]
[OGL LOG][Proc: 0]Uy: solve_multi_gpu: 266.101 [ms]
BJcudaGKOBiCGStab:  Solving for Uy, Initial residual = 0.1896847376425817, Final residual = 0.01888469654100726, No Iterations 3
[OGL LOG][Proc: 0]: global_index_init: 0.611 [ms]
[OGL LOG][Proc: 0]Uz_local_coeffs: call_update: 0 [ms]
[OGL LOG][Proc: 0]Uz_non_local_coeffs: call_update: 0 [ms]
[OGL LOG][Proc: 0]Uz: update_local_matrix_data: 186.941 [ms]
[OGL LOG][Proc: 0]Uz: update_non_local_matrix_data: 2.411 [ms]
[OGL LOG][Proc: 0]Uz_matrix: call_update: 4.895 [ms]
[OGL LOG][Proc: 0]Uz_rhs: call_update: 6.527 [ms]
[OGL LOG][Preconditioner.H:121] Generate preconditioner BJ MaxBlockSize 1
[OGL LOG][Proc: 0]Uz: init_precond: 2.192 [ms]
[OGL LOG][StoppingCriterion.H:239] Creating stopping criterion with minIter 4 frequency 1
[OGL LOG][Proc: 0]Uz: generate_solver: 0.015 [ms]
[OGL LOG][Proc: 0]Uz: solve: 179.805 [ms]
[OGL LOG][Proc: 0]Uz: copy_x_back: 11.184 [ms]
[OGL LOG][lduLduBase.H:330] 
Statistics:
	Time per iteration: 59935 [mu s]
	Time per residual norm calculation: 1605.000000 [mu s]
	Time per iteration and DOF: 1.187841 [ns]
	Retrieve results bandwidth 2.689000 [GByte/s]
[OGL LOG][Proc: 0]Uz: solve_multi_gpu: 224.867 [ms]
BJcudaGKOBiCGStab:  Solving for Uz, Initial residual = 0.4671237060437248, Final residual = 0.04452738684602945, No Iterations 3
[OGL LOG][Proc: 0]: global_index_init: 0.018 [ms]
[OGL LOG][Proc: 0]p_local_coeffs: call_update: 0 [ms]
[OGL LOG][Proc: 0]p_non_local_coeffs: call_update: 0 [ms]
[OGL LOG][Proc: 0]p: update_local_matrix_data: 147.952 [ms]
[OGL LOG][Proc: 0]p: update_non_local_matrix_data: 2.516 [ms]
[OGL LOG][Proc: 0]p_matrix: call_update: 4.522 [ms]
[OGL LOG][Proc: 0]p_rhs: call_update: 4.58 [ms]
[OGL LOG][Preconditioner.H:346] Generate preconditioner Multigrid MaxLevels 9 MinCoarseRows 10 ZeroGuess 1 Cycle v
[OGL LOG][Proc: 0]p: init_precond: 826.914 [ms]
[OGL LOG][StoppingCriterion.H:239] Creating stopping criterion with minIter 52 frequency 1
[OGL LOG][Proc: 0]p: generate_solver: 0.008999999999999999 [ms]
[OGL LOG][Proc: 0]p: solve: 2007.31 [ms]
[OGL LOG][Proc: 0]p: copy_x_back: 11.109 [ms]
[OGL LOG][lduLduBase.H:330] 
Statistics:
	Time per iteration: 26068 [mu s]
	Time per residual norm calculation: 1311.000000 [mu s]
	Time per iteration and DOF: 0.516637 [ns]
	Retrieve results bandwidth 2.707000 [GByte/s]
[OGL LOG][Proc: 0]p: solve_multi_gpu: 2906.151 [ms]
MultigridcudaGKOCG:  Solving for p, Initial residual = 0.6495758612087206, Final residual = 0.006210256500777685, No Iterations 77
time step continuity errors : sum local = 0.06233002081933128, global = -0.00546418708332439, cumulative = 0.007026544837696029
[OGL LOG][Proc: 0]: global_index_init: 9.404999999999999 [ms]
[OGL LOG][Proc: 0]nuTilda_local_coeffs: call_update: 0 [ms]
[OGL LOG][Proc: 0]nuTilda_non_local_coeffs: call_update: 0 [ms]
[OGL LOG][Proc: 0]nuTilda: update_local_matrix_data: 176.616 [ms]
[OGL LOG][Proc: 0]nuTilda: update_non_local_matrix_data: 2.332 [ms]
[OGL LOG][Proc: 0]nuTilda_matrix: call_update: 4.997 [ms]
[OGL LOG][Proc: 0]nuTilda_rhs: call_update: 8.967000000000001 [ms]
[OGL LOG][Preconditioner.H:121] Generate preconditioner BJ MaxBlockSize 1
[OGL LOG][Proc: 0]nuTilda: init_precond: 2.725 [ms]
[OGL LOG][StoppingCriterion.H:239] Creating stopping criterion with minIter 3 frequency 1
[OGL LOG][Proc: 0]nuTilda: generate_solver: 0.019 [ms]
[OGL LOG][Proc: 0]nuTilda: solve: 199.754 [ms]
[OGL LOG][Proc: 0]nuTilda: copy_x_back: 10.745 [ms]
[OGL LOG][lduLduBase.H:330] 
Statistics:
	Time per iteration: 99877 [mu s]
	Time per residual norm calculation: 1236.000000 [mu s]
	Time per iteration and DOF: 1.979444 [ns]
	Retrieve results bandwidth 2.799000 [GByte/s]
[OGL LOG][Proc: 0]nuTilda: solve_multi_gpu: 251.818 [ms]
BJcudaGKOBiCGStab:  Solving for nuTilda, Initial residual = 0.06509570063638997, Final residual = 0.004533713592503822, No Iterations 2
ExecutionTime = 1010.05 s  ClockTime = 1031 s

Time = 7

velocityDampingConstraint velocityDamping damped 10003 (0.02%) of cells, with max limit 300
[OGL LOG][Proc: 0]: global_index_init: 0.827 [ms]
[OGL LOG][Proc: 0]Ux_local_coeffs: call_update: 0 [ms]
[OGL LOG][Proc: 0]Ux_non_local_coeffs: call_update: 0 [ms]
[OGL LOG][Proc: 0]Ux: update_local_matrix_data: 190.29 [ms]
[OGL LOG][Proc: 0]Ux: update_non_local_matrix_data: 2.091 [ms]
[OGL LOG][Proc: 0]Ux_matrix: call_update: 4.75 [ms]
[OGL LOG][Proc: 0]Ux_rhs: call_update: 8.773999999999999 [ms]
[OGL LOG][Preconditioner.H:121] Generate preconditioner BJ MaxBlockSize 1
[OGL LOG][Proc: 0]Ux: init_precond: 2.214 [ms]
[OGL LOG][StoppingCriterion.H:239] Creating stopping criterion with minIter 4 frequency 1
[OGL LOG][Proc: 0]Ux: generate_solver: 0.014 [ms]
[OGL LOG][Proc: 0]Ux: solve: 191.24 [ms]
[OGL LOG][Proc: 0]Ux: copy_x_back: 10.764 [ms]
[OGL LOG][lduLduBase.H:330] 
Statistics:
	Time per iteration: 63746 [mu s]
	Time per residual norm calculation: 1803.000000 [mu s]
	Time per iteration and DOF: 1.263371 [ns]
	Retrieve results bandwidth 2.794000 [GByte/s]
[OGL LOG][Proc: 0]Ux: solve_multi_gpu: 238.275 [ms]
BJcudaGKOBiCGStab:  Solving for Ux, Initial residual = 0.09915834206907792, Final residual = 0.009236040397140748, No Iterations 3
[OGL LOG][Proc: 0]: global_index_init: 0.604 [ms]
[OGL LOG][Proc: 0]Uy_local_coeffs: call_update: 0 [ms]
[OGL LOG][Proc: 0]Uy_non_local_coeffs: call_update: 0 [ms]
[OGL LOG][Proc: 0]Uy: update_local_matrix_data: 187.257 [ms]
[OGL LOG][Proc: 0]Uy: update_non_local_matrix_data: 2.148 [ms]
[OGL LOG][Proc: 0]Uy_matrix: call_update: 3.772 [ms]
[OGL LOG][Proc: 0]Uy_rhs: call_update: 7.14 [ms]
[OGL LOG][Preconditioner.H:121] Generate preconditioner BJ MaxBlockSize 1
[OGL LOG][Proc: 0]Uy: init_precond: 2.129 [ms]
[OGL LOG][StoppingCriterion.H:239] Creating stopping criterion with minIter 3 frequency 1
[OGL LOG][Proc: 0]Uy: generate_solver: 0.019 [ms]
[OGL LOG][Proc: 0]Uy: solve: 187.033 [ms]
[OGL LOG][Proc: 0]Uy: copy_x_back: 10.963 [ms]
[OGL LOG][lduLduBase.H:330] 
Statistics:
	Time per iteration: 62344 [mu s]
	Time per residual norm calculation: 1789.000000 [mu s]
	Time per iteration and DOF: 1.235585 [ns]
	Retrieve results bandwidth 2.743000 [GByte/s]
[OGL LOG][Proc: 0]Uy: solve_multi_gpu: 230.632 [ms]
BJcudaGKOBiCGStab:  Solving for Uy, Initial residual = 0.1390186174056971, Final residual = 0.01338189675074132, No Iterations 3
[OGL LOG][Proc: 0]: global_index_init: 0.79 [ms]
[OGL LOG][Proc: 0]Uz_local_coeffs: call_update: 0 [ms]
[OGL LOG][Proc: 0]Uz_non_local_coeffs: call_update: 0 [ms]
[OGL LOG][Proc: 0]Uz: update_local_matrix_data: 190.069 [ms]
[OGL LOG][Proc: 0]Uz: update_non_local_matrix_data: 2.236 [ms]
[OGL LOG][Proc: 0]Uz_matrix: call_update: 4.385 [ms]
[OGL LOG][Proc: 0]Uz_rhs: call_update: 11.759 [ms]
[OGL LOG][Preconditioner.H:121] Generate preconditioner BJ MaxBlockSize 1
[OGL LOG][Proc: 0]Uz: init_precond: 2.144 [ms]
[OGL LOG][StoppingCriterion.H:239] Creating stopping criterion with minIter 3 frequency 1
[OGL LOG][Proc: 0]Uz: generate_solver: 0.016 [ms]
[OGL LOG][Proc: 0]Uz: solve: 187.649 [ms]
[OGL LOG][Proc: 0]Uz: copy_x_back: 10.993 [ms]
[OGL LOG][lduLduBase.H:330] 
Statistics:
	Time per iteration: 62549 [mu s]
	Time per residual norm calculation: 1498.000000 [mu s]
	Time per iteration and DOF: 1.239647 [ns]
	Retrieve results bandwidth 2.736000 [GByte/s]
[OGL LOG][Proc: 0]Uz: solve_multi_gpu: 232.215 [ms]
BJcudaGKOBiCGStab:  Solving for Uz, Initial residual = 0.2536436440545628, Final residual = 0.02146936434138645, No Iterations 3
[OGL LOG][Proc: 0]: global_index_init: 0.491 [ms]
[OGL LOG][Proc: 0]p_local_coeffs: call_update: 0 [ms]
[OGL LOG][Proc: 0]p_non_local_coeffs: call_update: 0 [ms]
[OGL LOG][Proc: 0]p: update_local_matrix_data: 120.44 [ms]
[OGL LOG][Proc: 0]p: update_non_local_matrix_data: 2.237 [ms]
[OGL LOG][Proc: 0]p_matrix: call_update: 4.443 [ms]
[OGL LOG][Proc: 0]p_rhs: call_update: 4.33 [ms]
[OGL LOG][Preconditioner.H:346] Generate preconditioner Multigrid MaxLevels 9 MinCoarseRows 10 ZeroGuess 1 Cycle v
[OGL LOG][Proc: 0]p: init_precond: 839.683 [ms]
[OGL LOG][StoppingCriterion.H:239] Creating stopping criterion with minIter 46 frequency 1
[OGL LOG][Proc: 0]p: generate_solver: 0.008999999999999999 [ms]
[OGL LOG][Proc: 0]p: solve: 1227.766 [ms]
[OGL LOG][Proc: 0]p: copy_x_back: 10.604 [ms]
[OGL LOG][lduLduBase.H:330] 
Statistics:
	Time per iteration: 26122 [mu s]
	Time per residual norm calculation: 1460.000000 [mu s]
	Time per iteration and DOF: 0.517707 [ns]
	Retrieve results bandwidth 2.836000 [GByte/s]
[OGL LOG][Proc: 0]p: solve_multi_gpu: 2164.974 [ms]
MultigridcudaGKOCG:  Solving for p, Initial residual = 0.431990230203064, Final residual = 0.0030896869101576, No Iterations 47
time step continuity errors : sum local = 0.02529583183635469, global = -0.003145159293364879, cumulative = 0.00388138554433115
[OGL LOG][Proc: 0]: global_index_init: 9.401 [ms]
[OGL LOG][Proc: 0]nuTilda_local_coeffs: call_update: 0 [ms]
[OGL LOG][Proc: 0]nuTilda_non_local_coeffs: call_update: 0 [ms]
[OGL LOG][Proc: 0]nuTilda: update_local_matrix_data: 179.648 [ms]
[OGL LOG][Proc: 0]nuTilda: update_non_local_matrix_data: 2.186 [ms]
[OGL LOG][Proc: 0]nuTilda_matrix: call_update: 4.771 [ms]
[OGL LOG][Proc: 0]nuTilda_rhs: call_update: 3.842 [ms]
[OGL LOG][Preconditioner.H:121] Generate preconditioner BJ MaxBlockSize 1
[OGL LOG][Proc: 0]nuTilda: init_precond: 2.21 [ms]
[OGL LOG][StoppingCriterion.H:239] Creating stopping criterion with minIter 3 frequency 1
[OGL LOG][Proc: 0]nuTilda: generate_solver: 0.016 [ms]
[OGL LOG][Proc: 0]nuTilda: solve: 185.368 [ms]
[OGL LOG][Proc: 0]nuTilda: copy_x_back: 10.133 [ms]
[OGL LOG][lduLduBase.H:330] 
Statistics:
	Time per iteration: 92684 [mu s]
	Time per residual norm calculation: 1835.000000 [mu s]
	Time per iteration and DOF: 1.836888 [ns]
	Retrieve results bandwidth 2.968000 [GByte/s]
[OGL LOG][Proc: 0]nuTilda: solve_multi_gpu: 229.317 [ms]
BJcudaGKOBiCGStab:  Solving for nuTilda, Initial residual = 0.05207842552617978, Final residual = 0.003473267248968007, No Iterations 2
ExecutionTime = 1027.99 s  ClockTime = 1049 s

Time = 8

velocityDampingConstraint velocityDamping damped 3873 (0.01%) of cells, with max limit 300
[OGL LOG][Proc: 0]: global_index_init: 6.975 [ms]
[OGL LOG][Proc: 0]Ux_local_coeffs: call_update: 0 [ms]
[OGL LOG][Proc: 0]Ux_non_local_coeffs: call_update: 0 [ms]
[OGL LOG][Proc: 0]Ux: update_local_matrix_data: 193.563 [ms]
[OGL LOG][Proc: 0]Ux: update_non_local_matrix_data: 2.092 [ms]
[OGL LOG][Proc: 0]Ux_matrix: call_update: 4.979 [ms]
[OGL LOG][Proc: 0]Ux_rhs: call_update: 7.31 [ms]
[OGL LOG][Preconditioner.H:121] Generate preconditioner BJ MaxBlockSize 1
[OGL LOG][Proc: 0]Ux: init_precond: 2.508 [ms]
[OGL LOG][StoppingCriterion.H:239] Creating stopping criterion with minIter 3 frequency 1
[OGL LOG][Proc: 0]Ux: generate_solver: 0.023 [ms]
[OGL LOG][Proc: 0]Ux: solve: 214.741 [ms]
[OGL LOG][Proc: 0]Ux: copy_x_back: 10.956 [ms]
[OGL LOG][lduLduBase.H:330] 
Statistics:
	Time per iteration: 53685 [mu s]
	Time per residual norm calculation: 1849.000000 [mu s]
	Time per iteration and DOF: 1.063973 [ns]
	Retrieve results bandwidth 2.745000 [GByte/s]
[OGL LOG][Proc: 0]Ux: solve_multi_gpu: 259.261 [ms]
BJcudaGKOBiCGStab:  Solving for Ux, Initial residual = 0.09518410224403132, Final residual = 0.004806933108181104, No Iterations 4
[OGL LOG][Proc: 0]: global_index_init: 0.571 [ms]
[OGL LOG][Proc: 0]Uy_local_coeffs: call_update: 0 [ms]
[OGL LOG][Proc: 0]Uy_non_local_coeffs: call_update: 0 [ms]
[OGL LOG][Proc: 0]Uy: update_local_matrix_data: 187.769 [ms]
[OGL LOG][Proc: 0]Uy: update_non_local_matrix_data: 2.18 [ms]
[OGL LOG][Proc: 0]Uy_matrix: call_update: 4.396 [ms]
[OGL LOG][Proc: 0]Uy_rhs: call_update: 9.605 [ms]
[OGL LOG][Preconditioner.H:121] Generate preconditioner BJ MaxBlockSize 1
[OGL LOG][Proc: 0]Uy: init_precond: 2.345 [ms]
[OGL LOG][StoppingCriterion.H:239] Creating stopping criterion with minIter 3 frequency 1
[OGL LOG][Proc: 0]Uy: generate_solver: 0.013 [ms]
[OGL LOG][Proc: 0]Uy: solve: 202.336 [ms]
[OGL LOG][Proc: 0]Uy: copy_x_back: 11.09 [ms]
[OGL LOG][lduLduBase.H:330] 
Statistics:
	Time per iteration: 67445 [mu s]
	Time per residual norm calculation: 1767.000000 [mu s]
	Time per iteration and DOF: 1.336680 [ns]
	Retrieve results bandwidth 2.712000 [GByte/s]
[OGL LOG][Proc: 0]Uy: solve_multi_gpu: 250.832 [ms]
BJcudaGKOBiCGStab:  Solving for Uy, Initial residual = 0.132900629055018, Final residual = 0.01001390069394933, No Iterations 3
[OGL LOG][Proc: 0]: global_index_init: 0.575 [ms]
[OGL LOG][Proc: 0]Uz_local_coeffs: call_update: 0 [ms]
[OGL LOG][Proc: 0]Uz_non_local_coeffs: call_update: 0 [ms]
[OGL LOG][Proc: 0]Uz: update_local_matrix_data: 187.184 [ms]
[OGL LOG][Proc: 0]Uz: update_non_local_matrix_data: 2.104 [ms]
[OGL LOG][Proc: 0]Uz_matrix: call_update: 4.927 [ms]
[OGL LOG][Proc: 0]Uz_rhs: call_update: 5.857 [ms]
[OGL LOG][Preconditioner.H:121] Generate preconditioner BJ MaxBlockSize 1
[OGL LOG][Proc: 0]Uz: init_precond: 2.239 [ms]
[OGL LOG][StoppingCriterion.H:239] Creating stopping criterion with minIter 4 frequency 1
[OGL LOG][Proc: 0]Uz: generate_solver: 0.014 [ms]
[OGL LOG][Proc: 0]Uz: solve: 199.845 [ms]
[OGL LOG][Proc: 0]Uz: copy_x_back: 10.433 [ms]
[OGL LOG][lduLduBase.H:330] 
Statistics:
	Time per iteration: 49961 [mu s]
	Time per residual norm calculation: 1677.000000 [mu s]
	Time per iteration and DOF: 0.990168 [ns]
	Retrieve results bandwidth 2.883000 [GByte/s]
[OGL LOG][Proc: 0]Uz: solve_multi_gpu: 242.503 [ms]
BJcudaGKOBiCGStab:  Solving for Uz, Initial residual = 0.2260875368893152, Final residual = 0.01322939196817595, No Iterations 4
[OGL LOG][Proc: 0]: global_index_init: 0.02 [ms]
[OGL LOG][Proc: 0]p_local_coeffs: call_update: 0 [ms]
[OGL LOG][Proc: 0]p_non_local_coeffs: call_update: 0 [ms]
[OGL LOG][Proc: 0]p: update_local_matrix_data: 119.819 [ms]
[OGL LOG][Proc: 0]p: update_non_local_matrix_data: 2.128 [ms]
[OGL LOG][Proc: 0]p_matrix: call_update: 4.446 [ms]
[OGL LOG][Proc: 0]p_rhs: call_update: 4.408 [ms]
[OGL LOG][Preconditioner.H:346] Generate preconditioner Multigrid MaxLevels 9 MinCoarseRows 10 ZeroGuess 1 Cycle v
[OGL LOG][Proc: 0]p: init_precond: 845.6559999999999 [ms]
[OGL LOG][StoppingCriterion.H:239] Creating stopping criterion with minIter 28 frequency 1
[OGL LOG][Proc: 0]p: generate_solver: 0.01 [ms]
[OGL LOG][Proc: 0]p: solve: 2226.18 [ms]
[OGL LOG][Proc: 0]p: copy_x_back: 10.888 [ms]
[OGL LOG][lduLduBase.H:330] 
Statistics:
	Time per iteration: 24463 [mu s]
	Time per residual norm calculation: 1432.000000 [mu s]
	Time per iteration and DOF: 0.484828 [ns]
	Retrieve results bandwidth 2.762000 [GByte/s]
[OGL LOG][Proc: 0]p: solve_multi_gpu: 3168.182 [ms]
MultigridcudaGKOCG:  Solving for p, Initial residual = 0.3687906110449269, Final residual = 0.003471249060436278, No Iterations 91
time step continuity errors : sum local = 0.0298614748615772, global = 0.001343804987562923, cumulative = 0.005225190531894073
[OGL LOG][Proc: 0]: global_index_init: 7.408 [ms]
[OGL LOG][Proc: 0]nuTilda_local_coeffs: call_update: 0 [ms]
[OGL LOG][Proc: 0]nuTilda_non_local_coeffs: call_update: 0 [ms]
[OGL LOG][Proc: 0]nuTilda: update_local_matrix_data: 176.246 [ms]
[OGL LOG][Proc: 0]nuTilda: update_non_local_matrix_data: 2.308 [ms]
[OGL LOG][Proc: 0]nuTilda_matrix: call_update: 4.513 [ms]
[OGL LOG][Proc: 0]nuTilda_rhs: call_update: 4.749 [ms]
[OGL LOG][Preconditioner.H:121] Generate preconditioner BJ MaxBlockSize 1
[OGL LOG][Proc: 0]nuTilda: init_precond: 2.018 [ms]
[OGL LOG][StoppingCriterion.H:239] Creating stopping criterion with minIter 3 frequency 1
[OGL LOG][Proc: 0]nuTilda: generate_solver: 0.016 [ms]
[OGL LOG][Proc: 0]nuTilda: solve: 166.755 [ms]
[OGL LOG][Proc: 0]nuTilda: copy_x_back: 10.304 [ms]
[OGL LOG][lduLduBase.H:330] 
Statistics:
	Time per iteration: 83377 [mu s]
	Time per residual norm calculation: 1618.000000 [mu s]
	Time per iteration and DOF: 1.652434 [ns]
	Retrieve results bandwidth 2.919000 [GByte/s]
[OGL LOG][Proc: 0]nuTilda: solve_multi_gpu: 212.978 [ms]
BJcudaGKOBiCGStab:  Solving for nuTilda, Initial residual = 0.04093800312403487, Final residual = 0.002521485220304414, No Iterations 2
ExecutionTime = 1047.08 s  ClockTime = 1068 s

Time = 9

velocityDampingConstraint velocityDamping damped 1343 (0%) of cells, with max limit 300
[OGL LOG][Proc: 0]: global_index_init: 10.073 [ms]
[OGL LOG][Proc: 0]Ux_local_coeffs: call_update: 0 [ms]
[OGL LOG][Proc: 0]Ux_non_local_coeffs: call_update: 0 [ms]
[OGL LOG][Proc: 0]Ux: update_local_matrix_data: 190.468 [ms]
[OGL LOG][Proc: 0]Ux: update_non_local_matrix_data: 2.378 [ms]
[OGL LOG][Proc: 0]Ux_matrix: call_update: 4.536 [ms]
[OGL LOG][Proc: 0]Ux_rhs: call_update: 13.223 [ms]
[OGL LOG][Preconditioner.H:121] Generate preconditioner BJ MaxBlockSize 1
[OGL LOG][Proc: 0]Ux: init_precond: 1.226 [ms]
[OGL LOG][StoppingCriterion.H:239] Creating stopping criterion with minIter 4 frequency 1
[OGL LOG][Proc: 0]Ux: generate_solver: 0.018 [ms]
[OGL LOG][Proc: 0]Ux: solve: 265.037 [ms]
[OGL LOG][Proc: 0]Ux: copy_x_back: 15.754 [ms]
[OGL LOG][lduLduBase.H:330] 
Statistics:
	Time per iteration: 88345 [mu s]
	Time per residual norm calculation: 1657.000000 [mu s]
	Time per iteration and DOF: 1.750894 [ns]
	Retrieve results bandwidth 1.909000 [GByte/s]
[OGL LOG][Proc: 0]Ux: solve_multi_gpu: 327.946 [ms]
BJcudaGKOBiCGStab:  Solving for Ux, Initial residual = 0.0598893640206869, Final residual = 0.004299270729616306, No Iterations 3
[OGL LOG][Proc: 0]: global_index_init: 5.738 [ms]
[OGL LOG][Proc: 0]Uy_local_coeffs: call_update: 0 [ms]
[OGL LOG][Proc: 0]Uy_non_local_coeffs: call_update: 0 [ms]
[OGL LOG][Proc: 0]Uy: update_local_matrix_data: 187.02 [ms]
[OGL LOG][Proc: 0]Uy: update_non_local_matrix_data: 2.33 [ms]
[OGL LOG][Proc: 0]Uy_matrix: call_update: 4.812 [ms]
[OGL LOG][Proc: 0]Uy_rhs: call_update: 3.981 [ms]
[OGL LOG][Preconditioner.H:121] Generate preconditioner BJ MaxBlockSize 1
[OGL LOG][Proc: 0]Uy: init_precond: 2.031 [ms]
[OGL LOG][StoppingCriterion.H:239] Creating stopping criterion with minIter 4 frequency 1
[OGL LOG][Proc: 0]Uy: generate_solver: 0.014 [ms]
[OGL LOG][Proc: 0]Uy: solve: 187.804 [ms]
[OGL LOG][Proc: 0]Uy: copy_x_back: 11.203 [ms]
[OGL LOG][lduLduBase.H:330] 
Statistics:
	Time per iteration: 62601 [mu s]
	Time per residual norm calculation: 1649.000000 [mu s]
	Time per iteration and DOF: 1.240678 [ns]
	Retrieve results bandwidth 2.685000 [GByte/s]
[OGL LOG][Proc: 0]Uy: solve_multi_gpu: 228.898 [ms]
BJcudaGKOBiCGStab:  Solving for Uy, Initial residual = 0.09331525101161749, Final residual = 0.007337719709922124, No Iterations 3
[OGL LOG][Proc: 0]: global_index_init: 0.594 [ms]
[OGL LOG][Proc: 0]Uz_local_coeffs: call_update: 0 [ms]
[OGL LOG][Proc: 0]Uz_non_local_coeffs: call_update: 0 [ms]
[OGL LOG][Proc: 0]Uz: update_local_matrix_data: 186.696 [ms]
[OGL LOG][Proc: 0]Uz: update_non_local_matrix_data: 2.347 [ms]
[OGL LOG][Proc: 0]Uz_matrix: call_update: 4.63 [ms]
[OGL LOG][Proc: 0]Uz_rhs: call_update: 7.932 [ms]
[OGL LOG][Preconditioner.H:121] Generate preconditioner BJ MaxBlockSize 1
[OGL LOG][Proc: 0]Uz: init_precond: 1.049 [ms]
[OGL LOG][StoppingCriterion.H:239] Creating stopping criterion with minIter 5 frequency 1
[OGL LOG][Proc: 0]Uz: generate_solver: 0.017 [ms]
[OGL LOG][Proc: 0]Uz: solve: 205.172 [ms]
[OGL LOG][Proc: 0]Uz: copy_x_back: 14.698 [ms]
[OGL LOG][lduLduBase.H:330] 
Statistics:
	Time per iteration: 51293 [mu s]
	Time per residual norm calculation: 1623.000000 [mu s]
	Time per iteration and DOF: 1.016567 [ns]
	Retrieve results bandwidth 2.046000 [GByte/s]
[OGL LOG][Proc: 0]Uz: solve_multi_gpu: 253.818 [ms]
BJcudaGKOBiCGStab:  Solving for Uz, Initial residual = 0.1873696054167029, Final residual = 0.009816867080988044, No Iterations 4
[OGL LOG][Proc: 0]: global_index_init: 0.018 [ms]
[OGL LOG][Proc: 0]p_local_coeffs: call_update: 0 [ms]
[OGL LOG][Proc: 0]p_non_local_coeffs: call_update: 0 [ms]
[OGL LOG][Proc: 0]p: update_local_matrix_data: 149.844 [ms]
[OGL LOG][Proc: 0]p: update_non_local_matrix_data: 2.352 [ms]
[OGL LOG][Proc: 0]p_matrix: call_update: 4.413 [ms]
[OGL LOG][Proc: 0]p_rhs: call_update: 5.587 [ms]
[OGL LOG][Preconditioner.H:346] Generate preconditioner Multigrid MaxLevels 9 MinCoarseRows 10 ZeroGuess 1 Cycle v
[OGL LOG][Proc: 0]p: init_precond: 836.175 [ms]
[OGL LOG][StoppingCriterion.H:239] Creating stopping criterion with minIter 54 frequency 1
[OGL LOG][Proc: 0]p: generate_solver: 0.01 [ms]
[OGL LOG][Proc: 0]p: solve: 1895.225 [ms]
[OGL LOG][Proc: 0]p: copy_x_back: 10.656 [ms]
[OGL LOG][lduLduBase.H:330] 
Statistics:
	Time per iteration: 24613 [mu s]
	Time per residual norm calculation: 1312.000000 [mu s]
	Time per iteration and DOF: 0.487801 [ns]
	Retrieve results bandwidth 2.823000 [GByte/s]
[OGL LOG][Proc: 0]p: solve_multi_gpu: 2798.109 [ms]
MultigridcudaGKOCG:  Solving for p, Initial residual = 0.4499477002189898, Final residual = 0.004472250279320673, No Iterations 77
time step continuity errors : sum local = 0.03041334859891644, global = 0.001339475432548287, cumulative = 0.00656466596444236
[OGL LOG][Proc: 0]: global_index_init: 18.614 [ms]
[OGL LOG][Proc: 0]nuTilda_local_coeffs: call_update: 0 [ms]
[OGL LOG][Proc: 0]nuTilda_non_local_coeffs: call_update: 0 [ms]
[OGL LOG][Proc: 0]nuTilda: update_local_matrix_data: 166.85 [ms]
[OGL LOG][Proc: 0]nuTilda: update_non_local_matrix_data: 2.375 [ms]
[OGL LOG][Proc: 0]nuTilda_matrix: call_update: 4.904 [ms]
[OGL LOG][Proc: 0]nuTilda_rhs: call_update: 4.186 [ms]
[OGL LOG][Preconditioner.H:121] Generate preconditioner BJ MaxBlockSize 1
[OGL LOG][Proc: 0]nuTilda: init_precond: 2.043 [ms]
[OGL LOG][StoppingCriterion.H:239] Creating stopping criterion with minIter 3 frequency 1
[OGL LOG][Proc: 0]nuTilda: generate_solver: 0.014 [ms]
[OGL LOG][Proc: 0]nuTilda: solve: 199.729 [ms]
[OGL LOG][Proc: 0]nuTilda: copy_x_back: 10.589 [ms]
[OGL LOG][lduLduBase.H:330] 
Statistics:
	Time per iteration: 99864 [mu s]
	Time per residual norm calculation: 1574.000000 [mu s]
	Time per iteration and DOF: 1.979187 [ns]
	Retrieve results bandwidth 2.840000 [GByte/s]
[OGL LOG][Proc: 0]nuTilda: solve_multi_gpu: 250.75 [ms]
BJcudaGKOBiCGStab:  Solving for nuTilda, Initial residual = 0.03545914400434232, Final residual = 0.002239426280382229, No Iterations 2
ExecutionTime = 1065.97 s  ClockTime = 1087 s

Time = 10

velocityDampingConstraint velocityDamping damped 1502 (0%) of cells, with max limit 300
[OGL LOG][Proc: 0]: global_index_init: 21.166 [ms]
[OGL LOG][Proc: 0]Ux_local_coeffs: call_update: 0 [ms]
[OGL LOG][Proc: 0]Ux_non_local_coeffs: call_update: 0 [ms]
[OGL LOG][Proc: 0]Ux: update_local_matrix_data: 188.275 [ms]
[OGL LOG][Proc: 0]Ux: update_non_local_matrix_data: 2.118 [ms]
[OGL LOG][Proc: 0]Ux_matrix: call_update: 4.813 [ms]
[OGL LOG][Proc: 0]Ux_rhs: call_update: 3.878 [ms]
[OGL LOG][Preconditioner.H:121] Generate preconditioner BJ MaxBlockSize 1
[OGL LOG][Proc: 0]Ux: init_precond: 1.847 [ms]
[OGL LOG][StoppingCriterion.H:239] Creating stopping criterion with minIter 4 frequency 1
[OGL LOG][Proc: 0]Ux: generate_solver: 0.017 [ms]
[OGL LOG][Proc: 0]Ux: solve: 184.207 [ms]
[OGL LOG][Proc: 0]Ux: copy_x_back: 11.119 [ms]
[OGL LOG][lduLduBase.H:330] 
Statistics:
	Time per iteration: 61402 [mu s]
	Time per residual norm calculation: 1523.000000 [mu s]
	Time per iteration and DOF: 1.216915 [ns]
	Retrieve results bandwidth 2.705000 [GByte/s]
[OGL LOG][Proc: 0]Ux: solve_multi_gpu: 224.603 [ms]
BJcudaGKOBiCGStab:  Solving for Ux, Initial residual = 0.03681077331582512, Final residual = 0.002604121279936356, No Iterations 3
[OGL LOG][Proc: 0]: global_index_init: 0.578 [ms]
[OGL LOG][Proc: 0]Uy_local_coeffs: call_update: 0 [ms]
[OGL LOG][Proc: 0]Uy_non_local_coeffs: call_update: 0 [ms]
[OGL LOG][Proc: 0]Uy: update_local_matrix_data: 186.834 [ms]
[OGL LOG][Proc: 0]Uy: update_non_local_matrix_data: 2.152 [ms]
[OGL LOG][Proc: 0]Uy_matrix: call_update: 4.537 [ms]
[OGL LOG][Proc: 0]Uy_rhs: call_update: 5.742 [ms]
[OGL LOG][Preconditioner.H:121] Generate preconditioner BJ MaxBlockSize 1
[OGL LOG][Proc: 0]Uy: init_precond: 2.173 [ms]
[OGL LOG][StoppingCriterion.H:239] Creating stopping criterion with minIter 4 frequency 1
[OGL LOG][Proc: 0]Uy: generate_solver: 0.021 [ms]
[OGL LOG][Proc: 0]Uy: solve: 185.736 [ms]
[OGL LOG][Proc: 0]Uy: copy_x_back: 10.912 [ms]
[OGL LOG][lduLduBase.H:330] 
Statistics:
	Time per iteration: 61912 [mu s]
	Time per residual norm calculation: 1512.000000 [mu s]
	Time per iteration and DOF: 1.227023 [ns]
	Retrieve results bandwidth 2.756000 [GByte/s]
[OGL LOG][Proc: 0]Uy: solve_multi_gpu: 226.683 [ms]
BJcudaGKOBiCGStab:  Solving for Uy, Initial residual = 0.08158111243253204, Final residual = 0.005512763251598684, No Iterations 3
[OGL LOG][Proc: 0]: global_index_init: 0.602 [ms]
[OGL LOG][Proc: 0]Uz_local_coeffs: call_update: 0 [ms]
[OGL LOG][Proc: 0]Uz_non_local_coeffs: call_update: 0 [ms]
[OGL LOG][Proc: 0]Uz: update_local_matrix_data: 187.795 [ms]
[OGL LOG][Proc: 0]Uz: update_non_local_matrix_data: 2.121 [ms]
[OGL LOG][Proc: 0]Uz_matrix: call_update: 4.846 [ms]
[OGL LOG][Proc: 0]Uz_rhs: call_update: 3.813 [ms]
[OGL LOG][Preconditioner.H:121] Generate preconditioner BJ MaxBlockSize 1
[OGL LOG][Proc: 0]Uz: init_precond: 2.066 [ms]
[OGL LOG][StoppingCriterion.H:239] Creating stopping criterion with minIter 4 frequency 1
[OGL LOG][Proc: 0]Uz: generate_solver: 0.014 [ms]
[OGL LOG][Proc: 0]Uz: solve: 182.765 [ms]
[OGL LOG][Proc: 0]Uz: copy_x_back: 10.747 [ms]
[OGL LOG][lduLduBase.H:330] 
Statistics:
	Time per iteration: 60921 [mu s]
	Time per residual norm calculation: 1513.000000 [mu s]
	Time per iteration and DOF: 1.207382 [ns]
	Retrieve results bandwidth 2.799000 [GByte/s]
[OGL LOG][Proc: 0]Uz: solve_multi_gpu: 220.107 [ms]
BJcudaGKOBiCGStab:  Solving for Uz, Initial residual = 0.1456431064884727, Final residual = 0.01188301966764016, No Iterations 3
[OGL LOG][Proc: 0]: global_index_init: 0.023 [ms]
[OGL LOG][Proc: 0]p_local_coeffs: call_update: 0 [ms]
[OGL LOG][Proc: 0]p_non_local_coeffs: call_update: 0 [ms]
[OGL LOG][Proc: 0]p: update_local_matrix_data: 119.38 [ms]
[OGL LOG][Proc: 0]p: update_non_local_matrix_data: 2.285 [ms]
[OGL LOG][Proc: 0]p_matrix: call_update: 4.391 [ms]
[OGL LOG][Proc: 0]p_rhs: call_update: 6.266 [ms]
[OGL LOG][Preconditioner.H:346] Generate preconditioner Multigrid MaxLevels 9 MinCoarseRows 10 ZeroGuess 1 Cycle v
[OGL LOG][Proc: 0]p: init_precond: 847.788 [ms]
[OGL LOG][StoppingCriterion.H:239] Creating stopping criterion with minIter 46 frequency 1
[OGL LOG][Proc: 0]p: generate_solver: 0.008999999999999999 [ms]
[OGL LOG][Proc: 0]p: solve: 1189.611 [ms]
[OGL LOG][Proc: 0]p: copy_x_back: 10.622 [ms]
[OGL LOG][lduLduBase.H:330] 
Statistics:
	Time per iteration: 25310 [mu s]
	Time per residual norm calculation: 1314.000000 [mu s]
	Time per iteration and DOF: 0.501614 [ns]
	Retrieve results bandwidth 2.832000 [GByte/s]
[OGL LOG][Proc: 0]p: solve_multi_gpu: 2132.673 [ms]
MultigridcudaGKOCG:  Solving for p, Initial residual = 0.352504385002837, Final residual = 0.002643876283224681, No Iterations 47
time step continuity errors : sum local = 0.01921921403156423, global = 0.0009334304649937923, cumulative = 0.007498096429436153
[OGL LOG][Proc: 0]: global_index_init: 10.346 [ms]
[OGL LOG][Proc: 0]nuTilda_local_coeffs: call_update: 0 [ms]
[OGL LOG][Proc: 0]nuTilda_non_local_coeffs: call_update: 0 [ms]
[OGL LOG][Proc: 0]nuTilda: update_local_matrix_data: 178.831 [ms]
[OGL LOG][Proc: 0]nuTilda: update_non_local_matrix_data: 2.162 [ms]
[OGL LOG][Proc: 0]nuTilda_matrix: call_update: 4.822 [ms]
[OGL LOG][Proc: 0]nuTilda_rhs: call_update: 3.95 [ms]
[OGL LOG][Preconditioner.H:121] Generate preconditioner BJ MaxBlockSize 1
[OGL LOG][Proc: 0]nuTilda: init_precond: 1.982 [ms]
[OGL LOG][StoppingCriterion.H:239] Creating stopping criterion with minIter 3 frequency 1
[OGL LOG][Proc: 0]nuTilda: generate_solver: 0.024 [ms]
[OGL LOG][Proc: 0]nuTilda: solve: 169.083 [ms]
[OGL LOG][Proc: 0]nuTilda: copy_x_back: 10.578 [ms]
[OGL LOG][lduLduBase.H:330] 
Statistics:
	Time per iteration: 84541 [mu s]
	Time per residual norm calculation: 1824.000000 [mu s]
	Time per iteration and DOF: 1.675503 [ns]
	Retrieve results bandwidth 2.843000 [GByte/s]
[OGL LOG][Proc: 0]nuTilda: solve_multi_gpu: 216.366 [ms]
BJcudaGKOBiCGStab:  Solving for nuTilda, Initial residual = 0.03021469382132588, Final residual = 0.001781628496006213, No Iterations 2
ExecutionTime = 1083.83 s  ClockTime = 1105 s

Time = 11

velocityDampingConstraint velocityDamping damped 644 (0%) of cells, with max limit 300
[OGL LOG][Proc: 0]: global_index_init: 22.052 [ms]
[OGL LOG][Proc: 0]Ux_local_coeffs: call_update: 0 [ms]
[OGL LOG][Proc: 0]Ux_non_local_coeffs: call_update: 0 [ms]
[OGL LOG][Proc: 0]Ux: update_local_matrix_data: 188.869 [ms]
[OGL LOG][Proc: 0]Ux: update_non_local_matrix_data: 2.369 [ms]
[OGL LOG][Proc: 0]Ux_matrix: call_update: 4.819 [ms]
[OGL LOG][Proc: 0]Ux_rhs: call_update: 4.557 [ms]
[OGL LOG][Preconditioner.H:121] Generate preconditioner BJ MaxBlockSize 1
[OGL LOG][Proc: 0]Ux: init_precond: 2.057 [ms]
[OGL LOG][StoppingCriterion.H:239] Creating stopping criterion with minIter 4 frequency 1
[OGL LOG][Proc: 0]Ux: generate_solver: 0.014 [ms]
[OGL LOG][Proc: 0]Ux: solve: 185.326 [ms]
[OGL LOG][Proc: 0]Ux: copy_x_back: 10.907 [ms]
[OGL LOG][lduLduBase.H:330] 
Statistics:
	Time per iteration: 61775 [mu s]
	Time per residual norm calculation: 1796.000000 [mu s]
	Time per iteration and DOF: 1.224308 [ns]
	Retrieve results bandwidth 2.758000 [GByte/s]
[OGL LOG][Proc: 0]Ux: solve_multi_gpu: 226.666 [ms]
BJcudaGKOBiCGStab:  Solving for Ux, Initial residual = 0.04555505745665848, Final residual = 0.004208135213433022, No Iterations 3
[...]
	Retrieve results bandwidth 2.863000 [GByte/s]
[OGL LOG][Proc: 0]p: solve_multi_gpu: 2229.049 [ms]
MultigridcudaGKOCG:  Solving for p, Initial residual = 0.09514203535083943, Final residual = 0.0009026344189069708, No Iterations 48
time step continuity errors : sum local = 0.001223909031796813, global = -4.172233081954388e-05, cumulative = 0.03328837732042105
[OGL LOG][Proc: 0]: global_index_init: 15.25 [ms]
[OGL LOG][Proc: 0]nuTilda_local_coeffs: call_update: 0 [ms]
[OGL LOG][Proc: 0]nuTilda_non_local_coeffs: call_update: 0 [ms]
[OGL LOG][Proc: 0]nuTilda: update_local_matrix_data: 178.067 [ms]
[OGL LOG][Proc: 0]nuTilda: update_non_local_matrix_data: 2.243 [ms]
[OGL LOG][Proc: 0]nuTilda_matrix: call_update: 5.045 [ms]
[OGL LOG][Proc: 0]nuTilda_rhs: call_update: 3.962 [ms]
[OGL LOG][Preconditioner.H:121] Generate preconditioner BJ MaxBlockSize 1
[OGL LOG][Proc: 0]nuTilda: init_precond: 1.993 [ms]
[OGL LOG][StoppingCriterion.H:239] Creating stopping criterion with minIter 3 frequency 1
[OGL LOG][Proc: 0]nuTilda: generate_solver: 0.02 [ms]
[OGL LOG][Proc: 0]nuTilda: solve: 169.897 [ms]
[OGL LOG][Proc: 0]nuTilda: copy_x_back: 10.807 [ms]
[OGL LOG][lduLduBase.H:330] 
Statistics:
	Time per iteration: 84948 [mu s]
	Time per residual norm calculation: 1643.000000 [mu s]
	Time per iteration and DOF: 1.683569 [ns]
	Retrieve results bandwidth 2.783000 [GByte/s]
[OGL LOG][Proc: 0]nuTilda: solve_multi_gpu: 214.9 [ms]
BJcudaGKOBiCGStab:  Solving for nuTilda, Initial residual = 0.009952778893742254, Final residual = 0.0006893441984282934, No Iterations 2
ExecutionTime = 2658.3 s  ClockTime = 2683 s

Time = 98

velocityDampingConstraint velocityDamping damped 0 (0%) of cells, with max limit 300
[OGL LOG][Proc: 0]: global_index_init: 0.608 [ms]
[OGL LOG][Proc: 0]Ux_local_coeffs: call_update: 0 [ms]
[OGL LOG][Proc: 0]Ux_non_local_coeffs: call_update: 0 [ms]
[OGL LOG][Proc: 0]Ux: update_local_matrix_data: 191.435 [ms]
[OGL LOG][Proc: 0]Ux: update_non_local_matrix_data: 2.464 [ms]
[OGL LOG][Proc: 0]Ux_matrix: call_update: 5.025 [ms]
[OGL LOG][Proc: 0]Ux_rhs: call_update: 7.135 [ms]
[OGL LOG][Preconditioner.H:121] Generate preconditioner BJ MaxBlockSize 1
[OGL LOG][Proc: 0]Ux: init_precond: 2.305 [ms]
[OGL LOG][StoppingCriterion.H:239] Creating stopping criterion with minIter 3 frequency 1
[OGL LOG][Proc: 0]Ux: generate_solver: 0.014 [ms]
[OGL LOG][Proc: 0]Ux: solve: 187.666 [ms]
[OGL LOG][Proc: 0]Ux: copy_x_back: 10.964 [ms]
[OGL LOG][lduLduBase.H:330] 
Statistics:
	Time per iteration: 93833 [mu s]
	Time per residual norm calculation: 1544.000000 [mu s]
	Time per iteration and DOF: 1.859659 [ns]
	Retrieve results bandwidth 2.743000 [GByte/s]
[OGL LOG][Proc: 0]Ux: solve_multi_gpu: 231.678 [ms]
BJcudaGKOBiCGStab:  Solving for Ux, Initial residual = 0.005290600214637275, Final residual = 0.0004795707148213037, No Iterations 2
[OGL LOG][Proc: 0]: global_index_init: 0.5620000000000001 [ms]
[OGL LOG][Proc: 0]Uy_local_coeffs: call_update: 0 [ms]
[OGL LOG][Proc: 0]Uy_non_local_coeffs: call_update: 0 [ms]
[OGL LOG][Proc: 0]Uy: update_local_matrix_data: 186.281 [ms]
[OGL LOG][Proc: 0]Uy: update_non_local_matrix_data: 2.34 [ms]
[OGL LOG][Proc: 0]Uy_matrix: call_update: 4.887 [ms]
[OGL LOG][Proc: 0]Uy_rhs: call_update: 6.372 [ms]
[OGL LOG][Preconditioner.H:121] Generate preconditioner BJ MaxBlockSize 1
[OGL LOG][Proc: 0]Uy: init_precond: 2.208 [ms]
[OGL LOG][StoppingCriterion.H:239] Creating stopping criterion with minIter 4 frequency 1
[OGL LOG][Proc: 0]Uy: generate_solver: 0.014 [ms]
[OGL LOG][Proc: 0]Uy: solve: 179.077 [ms]
[OGL LOG][Proc: 0]Uy: copy_x_back: 11.254 [ms]
[OGL LOG][lduLduBase.H:330] 
Statistics:
	Time per iteration: 59692 [mu s]
	Time per residual norm calculation: 1746.000000 [mu s]
	Time per iteration and DOF: 1.183025 [ns]
	Retrieve results bandwidth 2.673000 [GByte/s]
[OGL LOG][Proc: 0]Uy: solve_multi_gpu: 225.28 [ms]
BJcudaGKOBiCGStab:  Solving for Uy, Initial residual = 0.02454106572596246, Final residual = 0.002441209116636656, No Iterations 3
[OGL LOG][Proc: 0]: global_index_init: 0.575 [ms]
[OGL LOG][Proc: 0]Uz_local_coeffs: call_update: 0 [ms]
[OGL LOG][Proc: 0]Uz_non_local_coeffs: call_update: 0 [ms]
[OGL LOG][Proc: 0]Uz: update_local_matrix_data: 188.1 [ms]
[OGL LOG][Proc: 0]Uz: update_non_local_matrix_data: 2.356 [ms]
[OGL LOG][Proc: 0]Uz_matrix: call_update: 4.663 [ms]
[OGL LOG][Proc: 0]Uz_rhs: call_update: 4.267 [ms]
[OGL LOG][Preconditioner.H:121] Generate preconditioner BJ MaxBlockSize 1
[OGL LOG][Proc: 0]Uz: init_precond: 2.065 [ms]
[OGL LOG][StoppingCriterion.H:239] Creating stopping criterion with minIter 3 frequency 1
[OGL LOG][Proc: 0]Uz: generate_solver: 0.014 [ms]
[OGL LOG][Proc: 0]Uz: solve: 182.769 [ms]
[OGL LOG][Proc: 0]Uz: copy_x_back: 10.807 [ms]
[OGL LOG][lduLduBase.H:330] 
Statistics:
	Time per iteration: 60923 [mu s]
	Time per residual norm calculation: 1536.000000 [mu s]
	Time per iteration and DOF: 1.207422 [ns]
	Retrieve results bandwidth 2.783000 [GByte/s]
[OGL LOG][Proc: 0]Uz: solve_multi_gpu: 224.164 [ms]
BJcudaGKOBiCGStab:  Solving for Uz, Initial residual = 0.02918840850118664, Final residual = 0.001894320462655696, No Iterations 3
[OGL LOG][Proc: 0]: global_index_init: 0.02 [ms]
[OGL LOG][Proc: 0]p_local_coeffs: call_update: 0 [ms]
[OGL LOG][Proc: 0]p_non_local_coeffs: call_update: 0 [ms]
[OGL LOG][Proc: 0]p: update_local_matrix_data: 145.467 [ms]
[OGL LOG][Proc: 0]p: update_non_local_matrix_data: 2.418 [ms]
[OGL LOG][Proc: 0]p_matrix: call_update: 4.896 [ms]
[OGL LOG][Proc: 0]p_rhs: call_update: 4.111 [ms]
[OGL LOG][Preconditioner.H:346] Generate preconditioner Multigrid MaxLevels 9 MinCoarseRows 10 ZeroGuess 1 Cycle v
[OGL LOG][Proc: 0]p: init_precond: 838.873 [ms]
[OGL LOG][StoppingCriterion.H:239] Creating stopping criterion with minIter 28 frequency 1
[OGL LOG][Proc: 0]p: generate_solver: 0.008999999999999999 [ms]
[OGL LOG][Proc: 0]p: solve: 850.097 [ms]
[OGL LOG][Proc: 0]p: copy_x_back: 11.033 [ms]
[OGL LOG][lduLduBase.H:330] 
Statistics:
	Time per iteration: 29313 [mu s]
	Time per residual norm calculation: 1317.000000 [mu s]
	Time per iteration and DOF: 0.580949 [ns]
	Retrieve results bandwidth 2.726000 [GByte/s]
[OGL LOG][Proc: 0]p: solve_multi_gpu: 1755.703 [ms]
MultigridcudaGKOCG:  Solving for p, Initial residual = 0.09454214645156674, Final residual = 0.0008225640141403126, No Iterations 29
time step continuity errors : sum local = 0.001099392911324379, global = 2.643545963546331e-05, cumulative = 0.03331481278005651
[OGL LOG][Proc: 0]: global_index_init: 5.331 [ms]
[OGL LOG][Proc: 0]nuTilda_local_coeffs: call_update: 0 [ms]
[OGL LOG][Proc: 0]nuTilda_non_local_coeffs: call_update: 0 [ms]
[OGL LOG][Proc: 0]nuTilda: update_local_matrix_data: 178.144 [ms]
[OGL LOG][Proc: 0]nuTilda: update_non_local_matrix_data: 2.51 [ms]
[OGL LOG][Proc: 0]nuTilda_matrix: call_update: 4.515 [ms]
[OGL LOG][Proc: 0]nuTilda_rhs: call_update: 7.554 [ms]
[OGL LOG][Preconditioner.H:121] Generate preconditioner BJ MaxBlockSize 1
[OGL LOG][Proc: 0]nuTilda: init_precond: 2.416 [ms]
[OGL LOG][StoppingCriterion.H:239] Creating stopping criterion with minIter 3 frequency 1
[OGL LOG][Proc: 0]nuTilda: generate_solver: 0.014 [ms]
[OGL LOG][Proc: 0]nuTilda: solve: 170.737 [ms]
[OGL LOG][Proc: 0]nuTilda: copy_x_back: 10.179 [ms]
[OGL LOG][lduLduBase.H:330] 
Statistics:
	Time per iteration: 85368 [mu s]
	Time per residual norm calculation: 1655.000000 [mu s]
	Time per iteration and DOF: 1.691893 [ns]
	Retrieve results bandwidth 2.955000 [GByte/s]
[OGL LOG][Proc: 0]nuTilda: solve_multi_gpu: 205.182 [ms]
BJcudaGKOBiCGStab:  Solving for nuTilda, Initial residual = 0.008685057191625547, Final residual = 0.0006776526578838814, No Iterations 2
ExecutionTime = 2675.41 s  ClockTime = 2700 s

Time = 99

velocityDampingConstraint velocityDamping damped 0 (0%) of cells, with max limit 300
[OGL LOG][Proc: 0]: global_index_init: 0.604 [ms]
[OGL LOG][Proc: 0]Ux_local_coeffs: call_update: 0 [ms]
[OGL LOG][Proc: 0]Ux_non_local_coeffs: call_update: 0 [ms]
[OGL LOG][Proc: 0]Ux: update_local_matrix_data: 189.7 [ms]
[OGL LOG][Proc: 0]Ux: update_non_local_matrix_data: 2.121 [ms]
[OGL LOG][Proc: 0]Ux_matrix: call_update: 4.971 [ms]
[OGL LOG][Proc: 0]Ux_rhs: call_update: 3.962 [ms]
[OGL LOG][Preconditioner.H:121] Generate preconditioner BJ MaxBlockSize 1
[OGL LOG][Proc: 0]Ux: init_precond: 2.092 [ms]
[OGL LOG][StoppingCriterion.H:239] Creating stopping criterion with minIter 3 frequency 1
[OGL LOG][Proc: 0]Ux: generate_solver: 0.013 [ms]
[OGL LOG][Proc: 0]Ux: solve: 195.394 [ms]
[OGL LOG][Proc: 0]Ux: copy_x_back: 14.293 [ms]
[OGL LOG][lduLduBase.H:330] 
Statistics:
	Time per iteration: 97697 [mu s]
	Time per residual norm calculation: 1536.000000 [mu s]
	Time per iteration and DOF: 1.936239 [ns]
	Retrieve results bandwidth 2.104000 [GByte/s]
[OGL LOG][Proc: 0]Ux: solve_multi_gpu: 240.294 [ms]
BJcudaGKOBiCGStab:  Solving for Ux, Initial residual = 0.005241441946506115, Final residual = 0.0004997384019326216, No Iterations 2
[OGL LOG][Proc: 0]: global_index_init: 0.5629999999999999 [ms]
[OGL LOG][Proc: 0]Uy_local_coeffs: call_update: 0 [ms]
[OGL LOG][Proc: 0]Uy_non_local_coeffs: call_update: 0 [ms]
[OGL LOG][Proc: 0]Uy: update_local_matrix_data: 188.752 [ms]
[OGL LOG][Proc: 0]Uy: update_non_local_matrix_data: 2.195 [ms]
[OGL LOG][Proc: 0]Uy_matrix: call_update: 4.797 [ms]
[OGL LOG][Proc: 0]Uy_rhs: call_update: 7.192 [ms]
[OGL LOG][Preconditioner.H:121] Generate preconditioner BJ MaxBlockSize 1
[OGL LOG][Proc: 0]Uy: init_precond: 2.294 [ms]
[OGL LOG][StoppingCriterion.H:239] Creating stopping criterion with minIter 3 frequency 1
[OGL LOG][Proc: 0]Uy: generate_solver: 0.014 [ms]
[OGL LOG][Proc: 0]Uy: solve: 206.371 [ms]
[OGL LOG][Proc: 0]Uy: copy_x_back: 11.016 [ms]
[OGL LOG][lduLduBase.H:330] 
Statistics:
	Time per iteration: 68790 [mu s]
	Time per residual norm calculation: 1538.000000 [mu s]
	Time per iteration and DOF: 1.363337 [ns]
	Retrieve results bandwidth 2.730000 [GByte/s]
[OGL LOG][Proc: 0]Uy: solve_multi_gpu: 250.385 [ms]
BJcudaGKOBiCGStab:  Solving for Uy, Initial residual = 0.02529766171622459, Final residual = 0.002064862179611515, No Iterations 3
[OGL LOG][Proc: 0]: global_index_init: 0.575 [ms]
[OGL LOG][Proc: 0]Uz_local_coeffs: call_update: 0 [ms]
[OGL LOG][Proc: 0]Uz_non_local_coeffs: call_update: 0 [ms]
[OGL LOG][Proc: 0]Uz: update_local_matrix_data: 187.771 [ms]
[OGL LOG][Proc: 0]Uz: update_non_local_matrix_data: 2.114 [ms]
[OGL LOG][Proc: 0]Uz_matrix: call_update: 4.548 [ms]
[OGL LOG][Proc: 0]Uz_rhs: call_update: 9.278 [ms]
[OGL LOG][Preconditioner.H:121] Generate preconditioner BJ MaxBlockSize 1
[OGL LOG][Proc: 0]Uz: init_precond: 2.185 [ms]
[OGL LOG][StoppingCriterion.H:239] Creating stopping criterion with minIter 4 frequency 1
[OGL LOG][Proc: 0]Uz: generate_solver: 0.016 [ms]
[OGL LOG][Proc: 0]Uz: solve: 215.407 [ms]
[OGL LOG][Proc: 0]Uz: copy_x_back: 10.801 [ms]
[OGL LOG][lduLduBase.H:330] 
Statistics:
	Time per iteration: 71802 [mu s]
	Time per residual norm calculation: 1615.000000 [mu s]
	Time per iteration and DOF: 1.423031 [ns]
	Retrieve results bandwidth 2.785000 [GByte/s]
[OGL LOG][Proc: 0]Uz: solve_multi_gpu: 265.231 [ms]
BJcudaGKOBiCGStab:  Solving for Uz, Initial residual = 0.02516759267692033, Final residual = 0.002425666970655146, No Iterations 3
[OGL LOG][Proc: 0]: global_index_init: 0.019 [ms]
[OGL LOG][Proc: 0]p_local_coeffs: call_update: 0 [ms]
[OGL LOG][Proc: 0]p_non_local_coeffs: call_update: 0 [ms]
[OGL LOG][Proc: 0]p: update_local_matrix_data: 130.71 [ms]
[OGL LOG][Proc: 0]p: update_non_local_matrix_data: 2.224 [ms]
[OGL LOG][Proc: 0]p_matrix: call_update: 4.442 [ms]
[OGL LOG][Proc: 0]p_rhs: call_update: 6.875 [ms]
[OGL LOG][Preconditioner.H:346] Generate preconditioner Multigrid MaxLevels 9 MinCoarseRows 10 ZeroGuess 1 Cycle v
[OGL LOG][Proc: 0]p: init_precond: 882.356 [ms]
[OGL LOG][StoppingCriterion.H:239] Creating stopping criterion with minIter 17 frequency 1
[OGL LOG][Proc: 0]p: generate_solver: 0.01 [ms]
[OGL LOG][Proc: 0]p: solve: 1554.564 [ms]
[OGL LOG][Proc: 0]p: copy_x_back: 10.868 [ms]
[OGL LOG][lduLduBase.H:330] 
Statistics:
	Time per iteration: 26348 [mu s]
	Time per residual norm calculation: 1445.000000 [mu s]
	Time per iteration and DOF: 0.522186 [ns]
	Retrieve results bandwidth 2.767000 [GByte/s]
[OGL LOG][Proc: 0]p: solve_multi_gpu: 2520.273 [ms]
MultigridcudaGKOCG:  Solving for p, Initial residual = 0.08024234408604305, Final residual = 0.0007503014043201881, No Iterations 59
time step continuity errors : sum local = 0.0009812963231857613, global = 8.987952786067724e-05, cumulative = 0.03340469230791719
[OGL LOG][Proc: 0]: global_index_init: 12.523 [ms]
[OGL LOG][Proc: 0]nuTilda_local_coeffs: call_update: 0 [ms]
[OGL LOG][Proc: 0]nuTilda_non_local_coeffs: call_update: 0 [ms]
[OGL LOG][Proc: 0]nuTilda: update_local_matrix_data: 177.966 [ms]
[OGL LOG][Proc: 0]nuTilda: update_non_local_matrix_data: 2.123 [ms]
[OGL LOG][Proc: 0]nuTilda_matrix: call_update: 4.356 [ms]
[OGL LOG][Proc: 0]nuTilda_rhs: call_update: 4.16 [ms]
[OGL LOG][Preconditioner.H:121] Generate preconditioner BJ MaxBlockSize 1
[OGL LOG][Proc: 0]nuTilda: init_precond: 2.205 [ms]
[OGL LOG][StoppingCriterion.H:239] Creating stopping criterion with minIter 3 frequency 1
[OGL LOG][Proc: 0]nuTilda: generate_solver: 0.014 [ms]
[OGL LOG][Proc: 0]nuTilda: solve: 167.738 [ms]
[OGL LOG][Proc: 0]nuTilda: copy_x_back: 10.339 [ms]
[OGL LOG][lduLduBase.H:330] 
Statistics:
	Time per iteration: 83869 [mu s]
	Time per residual norm calculation: 1664.000000 [mu s]
	Time per iteration and DOF: 1.662185 [ns]
	Retrieve results bandwidth 2.909000 [GByte/s]
[OGL LOG][Proc: 0]nuTilda: solve_multi_gpu: 204.479 [ms]
BJcudaGKOBiCGStab:  Solving for nuTilda, Initial residual = 0.009752316200286472, Final residual = 0.00067048384218469, No Iterations 2
ExecutionTime = 2693.38 s  ClockTime = 2718 s

Time = 100

velocityDampingConstraint velocityDamping damped 0 (0%) of cells, with max limit 300
[OGL LOG][Proc: 0]: global_index_init: 1.235 [ms]
[OGL LOG][Proc: 0]Ux_local_coeffs: call_update: 0 [ms]
[OGL LOG][Proc: 0]Ux_non_local_coeffs: call_update: 0 [ms]
[OGL LOG][Proc: 0]Ux: update_local_matrix_data: 194.434 [ms]
[OGL LOG][Proc: 0]Ux: update_non_local_matrix_data: 2.127 [ms]
[OGL LOG][Proc: 0]Ux_matrix: call_update: 4.639 [ms]
[OGL LOG][Proc: 0]Ux_rhs: call_update: 8.557 [ms]
[OGL LOG][Preconditioner.H:121] Generate preconditioner BJ MaxBlockSize 1
[OGL LOG][Proc: 0]Ux: init_precond: 2.857 [ms]
[OGL LOG][StoppingCriterion.H:239] Creating stopping criterion with minIter 3 frequency 1
[OGL LOG][Proc: 0]Ux: generate_solver: 0.018 [ms]
[OGL LOG][Proc: 0]Ux: solve: 242.477 [ms]
[OGL LOG][Proc: 0]Ux: copy_x_back: 11.27 [ms]
[OGL LOG][lduLduBase.H:330] 
Statistics:
	Time per iteration: 80825 [mu s]
	Time per residual norm calculation: 1710.000000 [mu s]
	Time per iteration and DOF: 1.601856 [ns]
	Retrieve results bandwidth 2.669000 [GByte/s]
[OGL LOG][Proc: 0]Ux: solve_multi_gpu: 295.812 [ms]
BJcudaGKOBiCGStab:  Solving for Ux, Initial residual = 0.005142060974287319, Final residual = 0.0004748601175481338, No Iterations 3
[OGL LOG][Proc: 0]: global_index_init: 7.084 [ms]
[OGL LOG][Proc: 0]Uy_local_coeffs: call_update: 0 [ms]
[OGL LOG][Proc: 0]Uy_non_local_coeffs: call_update: 0 [ms]
[OGL LOG][Proc: 0]Uy: update_local_matrix_data: 186.618 [ms]
[OGL LOG][Proc: 0]Uy: update_non_local_matrix_data: 2.198 [ms]
[OGL LOG][Proc: 0]Uy_matrix: call_update: 4.609 [ms]
[OGL LOG][Proc: 0]Uy_rhs: call_update: 3.952 [ms]
[OGL LOG][Preconditioner.H:121] Generate preconditioner BJ MaxBlockSize 1
[OGL LOG][Proc: 0]Uy: init_precond: 2.244 [ms]
[OGL LOG][StoppingCriterion.H:239] Creating stopping criterion with minIter 4 frequency 1
[OGL LOG][Proc: 0]Uy: generate_solver: 0.015 [ms]
[OGL LOG][Proc: 0]Uy: solve: 176.121 [ms]
[OGL LOG][Proc: 0]Uy: copy_x_back: 11.02 [ms]
[OGL LOG][lduLduBase.H:330] 
Statistics:
	Time per iteration: 88060 [mu s]
	Time per residual norm calculation: 1599.000000 [mu s]
	Time per iteration and DOF: 1.745245 [ns]
	Retrieve results bandwidth 2.729000 [GByte/s]
[OGL LOG][Proc: 0]Uy: solve_multi_gpu: 215.819 [ms]
BJcudaGKOBiCGStab:  Solving for Uy, Initial residual = 0.02538805240058984, Final residual = 0.002533075116752466, No Iterations 2
[OGL LOG][Proc: 0]: global_index_init: 0.581 [ms]
[OGL LOG][Proc: 0]Uz_local_coeffs: call_update: 0 [ms]
[OGL LOG][Proc: 0]Uz_non_local_coeffs: call_update: 0 [ms]
[OGL LOG][Proc: 0]Uz: update_local_matrix_data: 187.108 [ms]
[OGL LOG][Proc: 0]Uz: update_non_local_matrix_data: 2.201 [ms]
[OGL LOG][Proc: 0]Uz_matrix: call_update: 4.551 [ms]
[OGL LOG][Proc: 0]Uz_rhs: call_update: 4.104 [ms]
[OGL LOG][Preconditioner.H:121] Generate preconditioner BJ MaxBlockSize 1
[OGL LOG][Proc: 0]Uz: init_precond: 2.076 [ms]
[OGL LOG][StoppingCriterion.H:239] Creating stopping criterion with minIter 3 frequency 1
[OGL LOG][Proc: 0]Uz: generate_solver: 0.014 [ms]
[OGL LOG][Proc: 0]Uz: solve: 196.937 [ms]
[OGL LOG][Proc: 0]Uz: copy_x_back: 11.327 [ms]
[OGL LOG][lduLduBase.H:330] 
Statistics:
	Time per iteration: 65645 [mu s]
	Time per residual norm calculation: 1561.000000 [mu s]
	Time per iteration and DOF: 1.301007 [ns]
	Retrieve results bandwidth 2.655000 [GByte/s]
[OGL LOG][Proc: 0]Uz: solve_multi_gpu: 238.194 [ms]
BJcudaGKOBiCGStab:  Solving for Uz, Initial residual = 0.02538925601541904, Final residual = 0.001264669186197631, No Iterations 3
[OGL LOG][Proc: 0]: global_index_init: 0.432 [ms]
[OGL LOG][Proc: 0]p_local_coeffs: call_update: 0 [ms]
[OGL LOG][Proc: 0]p_non_local_coeffs: call_update: 0 [ms]
[OGL LOG][Proc: 0]p: update_local_matrix_data: 149.103 [ms]
[OGL LOG][Proc: 0]p: update_non_local_matrix_data: 2.139 [ms]
[OGL LOG][Proc: 0]p_matrix: call_update: 4.799 [ms]
[OGL LOG][Proc: 0]p_rhs: call_update: 8.788 [ms]
[OGL LOG][Preconditioner.H:346] Generate preconditioner Multigrid MaxLevels 9 MinCoarseRows 10 ZeroGuess 1 Cycle v
[OGL LOG][Proc: 0]p: init_precond: 912.058 [ms]
[OGL LOG][StoppingCriterion.H:239] Creating stopping criterion with minIter 35 frequency 1
[OGL LOG][Proc: 0]p: generate_solver: 0.008999999999999999 [ms]
[OGL LOG][Proc: 0]p: solve: 1306.418 [ms]
[OGL LOG][Proc: 0]p: copy_x_back: 10.772 [ms]
[OGL LOG][lduLduBase.H:330] 
Statistics:
	Time per iteration: 26128 [mu s]
	Time per residual norm calculation: 1314.000000 [mu s]
	Time per iteration and DOF: 0.517826 [ns]
	Retrieve results bandwidth 2.792000 [GByte/s]
[OGL LOG][Proc: 0]p: solve_multi_gpu: 2289.229 [ms]
MultigridcudaGKOCG:  Solving for p, Initial residual = 0.1133593439280898, Final residual = 0.00101501424437357, No Iterations 50
time step continuity errors : sum local = 0.001386205221709033, global = 9.798337029200497e-05, cumulative = 0.0335026756782092
[OGL LOG][Proc: 0]: global_index_init: 13.633 [ms]
[OGL LOG][Proc: 0]nuTilda_local_coeffs: call_update: 0 [ms]
[OGL LOG][Proc: 0]nuTilda_non_local_coeffs: call_update: 0 [ms]
[OGL LOG][Proc: 0]nuTilda: update_local_matrix_data: 174.254 [ms]
[OGL LOG][Proc: 0]nuTilda: update_non_local_matrix_data: 2.162 [ms]
[OGL LOG][Proc: 0]nuTilda_matrix: call_update: 5.884 [ms]
[OGL LOG][Proc: 0]nuTilda_rhs: call_update: 3.448 [ms]
[OGL LOG][Preconditioner.H:121] Generate preconditioner BJ MaxBlockSize 1
[OGL LOG][Proc: 0]nuTilda: init_precond: 2.887 [ms]
[OGL LOG][StoppingCriterion.H:239] Creating stopping criterion with minIter 3 frequency 1
[OGL LOG][Proc: 0]nuTilda: generate_solver: 0.022 [ms]
[OGL LOG][Proc: 0]nuTilda: solve: 199.801 [ms]
[OGL LOG][Proc: 0]nuTilda: copy_x_back: 9.763 [ms]
[OGL LOG][lduLduBase.H:330] 
Statistics:
	Time per iteration: 99900 [mu s]
	Time per residual norm calculation: 1835.000000 [mu s]
	Time per iteration and DOF: 1.979900 [ns]
	Retrieve results bandwidth 3.081000 [GByte/s]
[OGL LOG][Proc: 0]nuTilda: solve_multi_gpu: 259.631 [ms]
BJcudaGKOBiCGStab:  Solving for nuTilda, Initial residual = 0.008579542224807448, Final residual = 0.000657007288919447, No Iterations 2
ExecutionTime = 2711.27 s  ClockTime = 2736 s

End

Finalising parallel run
