/*---------------------------------------------------------------------------*\
| =========                 |                                                 |
| \\      /  F ield         | OpenFOAM: The Open Source CFD Toolbox           |
|  \\    /   O peration     | Version:  2212                                  |
|   \\  /    A nd           | Website:  www.openfoam.com                      |
|    \\/     M anipulation  |                                                 |
\*---------------------------------------------------------------------------*/
Build  : 5614a57-20230228 OPENFOAM=2212 patch=230110 version=v2212
Arch   : "LSB;label=32;scalar=64"
Exec   : icoFoam -parallel -case /home/greole/data/code/exasim-project/micro_benchmarks/LidDrivenCavity3D/workspace/17d8f6c00ca7ca06c86c6cf86a527ba8/case
Date   : Jul 01 2023
Time   : 12:42:38
Host   : guyot
PID    : 2171481
I/O    : uncollated
Case   : /home/greole/data/code/exasim-project/micro_benchmarks/LidDrivenCavity3D/workspace/17d8f6c00ca7ca06c86c6cf86a527ba8/case
nProcs : 64
Hosts  :
(
    (guyot 64)
)
Pstream initialized with:
    floatTransfer      : 0
    nProcsSimpleSum    : 0
    commsType          : nonBlocking
    polling iterations : 0
trapFpe: Floating point exception trapping enabled (FOAM_SIGFPE).
fileModificationChecking : Monitoring run-time modified files using timeStampMaster (fileModificationSkew 5, maxFileModificationPolls 20)
allowSystemOperations : Allowing user-supplied system call operations

// * * * * * * * * * * * * * * * * * * * * * * * * * * * * * * * * * * * * * //
Create time

--> FOAM Warning : 
    From void* Foam::dlLibraryTable::openLibrary(const Foam::fileName&, bool)
    in file db/dynamicLibrary/dlLibraryTable/dlLibraryTable.C at line 188
    Could not load "libpetscFoam.so"
libpetscFoam.so: cannot open shared object file: No such file or directory
Create mesh for time = 0


PISO: Operating solver in PISO mode

Reading transportProperties

Reading field p

Reading field U

Reading/calculating face flux field phi


Starting time loop

Time = 0.00025

Courant Number mean: 8.24341e-18 max: 2.08167e-14
[INFO] MatrixAssemblyU: 114.366 [ms]
DILUPBiCGStab:  Solving for Ux, Initial residual = 1, Final residual = 0.0108015, No Iterations 5
DILUPBiCGStab:  Solving for Uy:  solution singularity
DILUPBiCGStab:  Solving for Uz:  solution singularity
[INFO] MomentumPredictor: 382.092 [ms]
[INFO] MatrixAssemblyPI: 119.185 [ms]
[INFO] AdjustPhi: 5.338 [ms]
[INFO] ConstrainPressure: 0.007 [ms]
[INFO] MatrixAssemblyPII: 33.675 [ms]
[OGL LOG][lduLduBase.H:122] Initialising OGL
	OGL commit:  6548490+
	Branch: gko-1.5.0 
	Build type: Release
	Ginkgo version: 1.5.0 ( develop)
	Ginkgo commit: 4292ffdee
	MPI is GPU aware: 1
	Forces host buffer based communication: 1
	CPU ranks per GPU: 1
	Matrix format: Coo
	End OGL_INFO
[OGL LOG][Proc: 0]: global_index_init: 668.651 [ms]
[OGL LOG][Proc: 0]p_local_cols: call_init: 1.945 [ms]
[OGL LOG][Proc: 0]p_local_rows: call_init: 0.023 [ms]
[OGL LOG][Proc: 0]p_local_ldu_map: call_init: 0.009 [ms]
[OGL LOG][Proc: 0]p_local_coeffs: call_init: 0.016 [ms]
[OGL LOG][Proc: 0]p_non_local_cols: call_init: 0.005 [ms]
[OGL LOG][Proc: 0]p_non_local_rows: call_init: 0.003 [ms]
[OGL LOG][Proc: 0]p_non_local_ldu_map: call_init: 0.003 [ms]
[OGL LOG][Proc: 0]p_non_local_coeffs: call_init: 0.003 [ms]
[OGL LOG][Proc: 0]p: init_local_sparsity_pattern: 44.715 [ms]
[OGL LOG][Proc: 0]p: init_non_local_sparsity_pattern: 0.731 [ms]
[OGL LOG][Proc: 0]p: update_local_matrix_data: 20.565 [ms]
[OGL LOG][Proc: 0]p: update_non_local_matrix_data: 0.229 [ms]
[OGL LOG][Proc: 0]device_partition: call_init: 0.867 [ms]
[OGL LOG][Proc: 0]p_matrix: call_init: 551.428 [ms]
[OGL LOG][Proc: 0]p_rhs: call_init: 17.149 [ms]
[OGL LOG][Proc: 0]p_solution: call_init: 0.827 [ms]
[OGL LOG][Proc: 0]p: init_precond: 0.148 [ms]
[OGL LOG][StoppingCriterion.H:372] Creating stopping criterion with minIter 0 frequency 1
[OGL LOG][Proc: 0]p: generate_solver: 0.064 [ms]
[OGL LOG][Proc: 0]p: solve: 23496.8 [ms]
[OGL LOG][Proc: 0]p: copy_x_back: 0.658 [ms]
[OGL LOG][lduLduBase.H:339] 
Statistics:
	Time per iteration: 14612 [mu s]
	Time per residual norm calculation: 4456.000000 [mu s]
	Time per iteration and DOF: 1.826500 [ns]
	Retrieve results bandwidth 1.519000 [GByte/s]
[OGL LOG][Proc: 0]p: solve_multi_gpu: 24076.2 [ms]
nonecudaGKOCG:  Solving for p, Initial residual = 1, Final residual = 9.87398e-05, No Iterations 1608
[INFO] SolveP: 49043 [ms]
time step continuity errors : sum local = 8.14997e-09, global = 1.43219e-21, cumulative = 1.43219e-21
[INFO] ContinuityError: 24.239 [ms]
[INFO] CorrectBoundary: 0.37 [ms]
[INFO] PISOStep: 49255.8 [ms]
[INFO] MatrixAssemblyPI: 111.484 [ms]
[INFO] AdjustPhi: 5.091 [ms]
[INFO] ConstrainPressure: 0.008 [ms]
[INFO] MatrixAssemblyPII: 33.756 [ms]
[OGL LOG][Proc: 0]: global_index_init: 0.048 [ms]
[OGL LOG][Proc: 0]p_local_coeffs: call_update: 0.018 [ms]
[OGL LOG][Proc: 0]p_non_local_coeffs: call_update: 0 [ms]
[OGL LOG][Proc: 0]p: update_local_matrix_data: 21.041 [ms]
[OGL LOG][Proc: 0]p: update_non_local_matrix_data: 0.193 [ms]
[OGL LOG][Proc: 0]p_matrix: call_update: 26.101 [ms]
[OGL LOG][Proc: 0]p_rhs: call_update: 6.33 [ms]
[OGL LOG][Proc: 0]p: init_precond: 0.12 [ms]
[OGL LOG][StoppingCriterion.H:372] Creating stopping criterion with minIter 964 frequency 14
[OGL LOG][Proc: 0]p: generate_solver: 0.001 [ms]
[OGL LOG][Proc: 0]p: solve: 15898.3 [ms]
[OGL LOG][Proc: 0]p: copy_x_back: 1.425 [ms]
[OGL LOG][lduLduBase.H:339] 
Statistics:
	Time per iteration: 9955 [mu s]
	Time per residual norm calculation: 4250.000000 [mu s]
	Time per iteration and DOF: 1.244375 [ns]
	Retrieve results bandwidth 0.701000 [GByte/s]
[OGL LOG][Proc: 0]p: solve_multi_gpu: 15938 [ms]
nonecudaGKOCG:  Solving for p, Initial residual = 0.79299, Final residual = 8.27522e-05, No Iterations 1597
[INFO] SolveP: 15981.2 [ms]
time step continuity errors : sum local = 8.43857e-09, global = 3.82254e-22, cumulative = 1.81444e-21
[INFO] ContinuityError: 18.351 [ms]
[INFO] CorrectBoundary: 2.667 [ms]
[INFO] PISOStep: 16184.9 [ms]
[INFO] TimeStep: 65947.5 [ms]
ExecutionTime = 47.17 s  ClockTime = 66 s

Time = 0.0005

Courant Number mean: 0.0158927 max: 0.412421
[INFO] MatrixAssemblyU: 110.445 [ms]
DILUPBiCGStab:  Solving for Ux, Initial residual = 0.129567, Final residual = 0.00613996, No Iterations 5
DILUPBiCGStab:  Solving for Uy, Initial residual = 0.427347, Final residual = 0.0163983, No Iterations 5
DILUPBiCGStab:  Solving for Uz, Initial residual = 0.984823, Final residual = 0.0410182, No Iterations 5
[INFO] MomentumPredictor: 728.507 [ms]
[INFO] MatrixAssemblyPI: 114.758 [ms]
[INFO] AdjustPhi: 6.144 [ms]
[INFO] ConstrainPressure: 0.002 [ms]
[INFO] MatrixAssemblyPII: 33.505 [ms]
[OGL LOG][Proc: 0]: global_index_init: 0.066 [ms]
[OGL LOG][Proc: 0]p_local_coeffs: call_update: 0 [ms]
[OGL LOG][Proc: 0]p_non_local_coeffs: call_update: 0 [ms]
[OGL LOG][Proc: 0]p: update_local_matrix_data: 20.971 [ms]
[OGL LOG][Proc: 0]p: update_non_local_matrix_data: 0.253 [ms]
[OGL LOG][Proc: 0]p_matrix: call_update: 29.313 [ms]
[OGL LOG][Proc: 0]p_rhs: call_update: 3.339 [ms]
[OGL LOG][Proc: 0]p: init_precond: 0.086 [ms]
[OGL LOG][StoppingCriterion.H:372] Creating stopping criterion with minIter 958 frequency 17
[OGL LOG][Proc: 0]p: generate_solver: 0.001 [ms]
[OGL LOG][Proc: 0]p: solve: 15534.4 [ms]
[OGL LOG][Proc: 0]p: copy_x_back: 0.642 [ms]
[OGL LOG][lduLduBase.H:339] 
Statistics:
	Time per iteration: 9926 [mu s]
	Time per residual norm calculation: 4413.000000 [mu s]
	Time per iteration and DOF: 1.240750 [ns]
	Retrieve results bandwidth 1.557000 [GByte/s]
[OGL LOG][Proc: 0]p: solve_multi_gpu: 15573.7 [ms]
nonecudaGKOCG:  Solving for p, Initial residual = 0.838095, Final residual = 9.66045e-05, No Iterations 1565
[INFO] SolveP: 15613.6 [ms]
time step continuity errors : sum local = 1.5378e-08, global = 1.81191e-22, cumulative = 1.99563e-21
[INFO] ContinuityError: 25.873 [ms]
[INFO] CorrectBoundary: 0.318 [ms]
[INFO] PISOStep: 15824.5 [ms]
[INFO] MatrixAssemblyPI: 111.78 [ms]
[INFO] AdjustPhi: 5.447 [ms]
[INFO] ConstrainPressure: 0.014 [ms]
[INFO] MatrixAssemblyPII: 33.333 [ms]
[OGL LOG][Proc: 0]: global_index_init: 0.037 [ms]
[OGL LOG][Proc: 0]p_local_coeffs: call_update: 0 [ms]
[OGL LOG][Proc: 0]p_non_local_coeffs: call_update: 0 [ms]
[OGL LOG][Proc: 0]p: update_local_matrix_data: 20.66 [ms]
[OGL LOG][Proc: 0]p: update_non_local_matrix_data: 0.125 [ms]
[OGL LOG][Proc: 0]p_matrix: call_update: 29.178 [ms]
[OGL LOG][Proc: 0]p_rhs: call_update: 2.153 [ms]
[OGL LOG][Proc: 0]p: init_precond: 0.074 [ms]
[OGL LOG][StoppingCriterion.H:372] Creating stopping criterion with minIter 939 frequency 17
[OGL LOG][Proc: 0]p: generate_solver: 0.002 [ms]
[OGL LOG][Proc: 0]p: solve: 15570.4 [ms]
[OGL LOG][Proc: 0]p: copy_x_back: 1.242 [ms]
[OGL LOG][lduLduBase.H:339] 
Statistics:
	Time per iteration: 9949 [mu s]
	Time per residual norm calculation: 4570.000000 [mu s]
	Time per iteration and DOF: 1.243625 [ns]
	Retrieve results bandwidth 0.805000 [GByte/s]
[OGL LOG][Proc: 0]p: solve_multi_gpu: 15615.5 [ms]
nonecudaGKOCG:  Solving for p, Initial residual = 0.779056, Final residual = 8.75996e-05, No Iterations 1565
[INFO] SolveP: 15655.3 [ms]
time step continuity errors : sum local = 1.42053e-08, global = -2.32597e-21, cumulative = -3.30336e-22
[INFO] ContinuityError: 6.922 [ms]
[INFO] CorrectBoundary: 0.293 [ms]
[INFO] PISOStep: 15856.6 [ms]
[INFO] TimeStep: 32530.7 [ms]
ExecutionTime = 79.54 s  ClockTime = 99 s

Time = 0.00075

Courant Number mean: 0.0242593 max: 0.4722
[INFO] MatrixAssemblyU: 111.504 [ms]
DILUPBiCGStab:  Solving for Ux, Initial residual = 0.0548444, Final residual = 0.00212141, No Iterations 5
DILUPBiCGStab:  Solving for Uy, Initial residual = 0.182767, Final residual = 0.00857956, No Iterations 5
DILUPBiCGStab:  Solving for Uz, Initial residual = 0.806177, Final residual = 0.028678, No Iterations 5
[INFO] MomentumPredictor: 726.221 [ms]
[INFO] MatrixAssemblyPI: 114.705 [ms]
[INFO] AdjustPhi: 5.142 [ms]
[INFO] ConstrainPressure: 0.003 [ms]
[INFO] MatrixAssemblyPII: 34.028 [ms]
[OGL LOG][Proc: 0]: global_index_init: 0.205 [ms]
[OGL LOG][Proc: 0]p_local_coeffs: call_update: 0 [ms]
[OGL LOG][Proc: 0]p_non_local_coeffs: call_update: 0 [ms]
[OGL LOG][Proc: 0]p: update_local_matrix_data: 20.856 [ms]
[OGL LOG][Proc: 0]p: update_non_local_matrix_data: 0.208 [ms]
[OGL LOG][Proc: 0]p_matrix: call_update: 23.567 [ms]
[OGL LOG][Proc: 0]p_rhs: call_update: 7.679 [ms]
[OGL LOG][Proc: 0]p: init_precond: 0.074 [ms]
[OGL LOG][StoppingCriterion.H:372] Creating stopping criterion with minIter 939 frequency 17
[OGL LOG][Proc: 0]p: generate_solver: 0.002 [ms]
[OGL LOG][Proc: 0]p: solve: 15683.7 [ms]
[OGL LOG][Proc: 0]p: copy_x_back: 1.081 [ms]
[OGL LOG][lduLduBase.H:339] 
Statistics:
	Time per iteration: 9913 [mu s]
	Time per residual norm calculation: 4106.000000 [mu s]
	Time per iteration and DOF: 1.239125 [ns]
	Retrieve results bandwidth 0.925000 [GByte/s]
[OGL LOG][Proc: 0]p: solve_multi_gpu: 15718.2 [ms]
nonecudaGKOCG:  Solving for p, Initial residual = 0.855133, Final residual = 6.75708e-05, No Iterations 1582
[INFO] SolveP: 15766.6 [ms]
time step continuity errors : sum local = 9.49728e-09, global = -4.42622e-22, cumulative = -7.72958e-22
[INFO] ContinuityError: 9.275 [ms]
[INFO] CorrectBoundary: 0.626 [ms]
[INFO] PISOStep: 15973.4 [ms]
[INFO] MatrixAssemblyPI: 110.617 [ms]
[INFO] AdjustPhi: 6.092 [ms]
[INFO] ConstrainPressure: 0.015 [ms]
[INFO] MatrixAssemblyPII: 33.535 [ms]
[OGL LOG][Proc: 0]: global_index_init: 0.102 [ms]
[OGL LOG][Proc: 0]p_local_coeffs: call_update: 0 [ms]
[OGL LOG][Proc: 0]p_non_local_coeffs: call_update: 0 [ms]
[OGL LOG][Proc: 0]p: update_local_matrix_data: 20.789 [ms]
[OGL LOG][Proc: 0]p: update_non_local_matrix_data: 0.243 [ms]
[OGL LOG][Proc: 0]p_matrix: call_update: 25.972 [ms]
[OGL LOG][Proc: 0]p_rhs: call_update: 7.475 [ms]
[OGL LOG][Proc: 0]p: init_precond: 0.077 [ms]
[OGL LOG][StoppingCriterion.H:372] Creating stopping criterion with minIter 949 frequency 17
[OGL LOG][Proc: 0]p: generate_solver: 0.002 [ms]
[OGL LOG][Proc: 0]p: solve: 15742.4 [ms]
[OGL LOG][Proc: 0]p: copy_x_back: 0.819 [ms]
[OGL LOG][lduLduBase.H:339] 
Statistics:
	Time per iteration: 9950 [mu s]
	Time per residual norm calculation: 4103.000000 [mu s]
	Time per iteration and DOF: 1.243750 [ns]
	Retrieve results bandwidth 1.221000 [GByte/s]
[OGL LOG][Proc: 0]p: solve_multi_gpu: 15779.1 [ms]
nonecudaGKOCG:  Solving for p, Initial residual = 0.818522, Final residual = 6.28171e-05, No Iterations 1582
[INFO] SolveP: 15828 [ms]
time step continuity errors : sum local = 8.63513e-09, global = -1.1644e-21, cumulative = -1.93736e-21
[INFO] ContinuityError: 8.977 [ms]
[INFO] CorrectBoundary: 0.997 [ms]
[INFO] PISOStep: 16030.7 [ms]
[INFO] TimeStep: 32852.5 [ms]
ExecutionTime = 112.22 s  ClockTime = 132 s

Time = 0.001

Courant Number mean: 0.0291191 max: 0.46765
[INFO] MatrixAssemblyU: 109.522 [ms]
DILUPBiCGStab:  Solving for Ux, Initial residual = 0.0348279, Final residual = 0.00138138, No Iterations 5
DILUPBiCGStab:  Solving for Uy, Initial residual = 0.129445, Final residual = 0.00546807, No Iterations 5
DILUPBiCGStab:  Solving for Uz, Initial residual = 0.610143, Final residual = 0.0181341, No Iterations 5
[INFO] MomentumPredictor: 728.936 [ms]
[INFO] MatrixAssemblyPI: 114.296 [ms]
[INFO] AdjustPhi: 6.264 [ms]
[INFO] ConstrainPressure: 0.003 [ms]
[INFO] MatrixAssemblyPII: 33.602 [ms]
[OGL LOG][Proc: 0]: global_index_init: 0.127 [ms]
[OGL LOG][Proc: 0]p_local_coeffs: call_update: 0 [ms]
[OGL LOG][Proc: 0]p_non_local_coeffs: call_update: 0 [ms]
[OGL LOG][Proc: 0]p: update_local_matrix_data: 20.92 [ms]
[OGL LOG][Proc: 0]p: update_non_local_matrix_data: 0.194 [ms]
[OGL LOG][Proc: 0]p_matrix: call_update: 28.439 [ms]
[OGL LOG][Proc: 0]p_rhs: call_update: 4.027 [ms]
[OGL LOG][Proc: 0]p: init_precond: 0.078 [ms]
[OGL LOG][StoppingCriterion.H:372] Creating stopping criterion with minIter 949 frequency 17
[OGL LOG][Proc: 0]p: generate_solver: 0.001 [ms]
[OGL LOG][Proc: 0]p: solve: 9426.77 [ms]
[OGL LOG][Proc: 0]p: copy_x_back: 0.725 [ms]
[OGL LOG][lduLduBase.H:339] 
Statistics:
	Time per iteration: 9891 [mu s]
	Time per residual norm calculation: 5020.000000 [mu s]
	Time per iteration and DOF: 1.236375 [ns]
	Retrieve results bandwidth 1.379000 [GByte/s]
[OGL LOG][Proc: 0]p: solve_multi_gpu: 9472.31 [ms]
nonecudaGKOCG:  Solving for p, Initial residual = 0.781333, Final residual = 4.42032e-05, No Iterations 953
[INFO] SolveP: 9509.22 [ms]
time step continuity errors : sum local = 6.12273e-09, global = -3.4663e-21, cumulative = -5.40366e-21
[INFO] ContinuityError: 13.692 [ms]
[INFO] CorrectBoundary: 0.851 [ms]
[INFO] PISOStep: 9716.77 [ms]
[INFO] MatrixAssemblyPI: 110.087 [ms]
[INFO] AdjustPhi: 6.393 [ms]
[INFO] ConstrainPressure: 0.015 [ms]
[INFO] MatrixAssemblyPII: 33.765 [ms]
[OGL LOG][Proc: 0]: global_index_init: 0.089 [ms]
[OGL LOG][Proc: 0]p_local_coeffs: call_update: 0 [ms]
[OGL LOG][Proc: 0]p_non_local_coeffs: call_update: 0 [ms]
[OGL LOG][Proc: 0]p: update_local_matrix_data: 20.766 [ms]
[OGL LOG][Proc: 0]p: update_non_local_matrix_data: 0.158 [ms]
[OGL LOG][Proc: 0]p_matrix: call_update: 20.859 [ms]
[OGL LOG][Proc: 0]p_rhs: call_update: 10.765 [ms]
[OGL LOG][Proc: 0]p: init_precond: 0.079 [ms]
[OGL LOG][StoppingCriterion.H:372] Creating stopping criterion with minIter 571 frequency 19
[OGL LOG][Proc: 0]p: generate_solver: 0.001 [ms]
[OGL LOG][Proc: 0]p: solve: 7608.64 [ms]
[OGL LOG][Proc: 0]p: copy_x_back: 0.437 [ms]
[OGL LOG][lduLduBase.H:339] 
Statistics:
	Time per iteration: 9998 [mu s]
	Time per residual norm calculation: 4878.000000 [mu s]
	Time per iteration and DOF: 1.249750 [ns]
	Retrieve results bandwidth 2.288000 [GByte/s]
[OGL LOG][Proc: 0]p: solve_multi_gpu: 7650.42 [ms]
nonecudaGKOCG:  Solving for p, Initial residual = 0.716708, Final residual = 9.08543e-05, No Iterations 761
[INFO] SolveP: 7688.46 [ms]
time step continuity errors : sum local = 1.19613e-08, global = -1.64376e-21, cumulative = -7.04742e-21
[INFO] ContinuityError: 15.143 [ms]
[INFO] CorrectBoundary: 0.24 [ms]
[INFO] PISOStep: 7893.5 [ms]
[INFO] TimeStep: 18459.5 [ms]
ExecutionTime = 130.58 s  ClockTime = 150 s

Time = 0.00125

Courant Number mean: 0.0332565 max: 0.473067
[INFO] MatrixAssemblyU: 110.549 [ms]
DILUPBiCGStab:  Solving for Ux, Initial residual = 0.0272413, Final residual = 0.00101662, No Iterations 5
DILUPBiCGStab:  Solving for Uy, Initial residual = 0.0819282, Final residual = 0.00395691, No Iterations 5
DILUPBiCGStab:  Solving for Uz, Initial residual = 0.462205, Final residual = 0.0132314, No Iterations 5
[INFO] MomentumPredictor: 728.522 [ms]
[INFO] MatrixAssemblyPI: 114.967 [ms]
[INFO] AdjustPhi: 5.512 [ms]
[INFO] ConstrainPressure: 0.003 [ms]
[INFO] MatrixAssemblyPII: 33.946 [ms]
[OGL LOG][Proc: 0]: global_index_init: 0.107 [ms]
[OGL LOG][Proc: 0]p_local_coeffs: call_update: 0 [ms]
[OGL LOG][Proc: 0]p_non_local_coeffs: call_update: 0 [ms]
[OGL LOG][Proc: 0]p: update_local_matrix_data: 21.164 [ms]
[OGL LOG][Proc: 0]p: update_non_local_matrix_data: 0.133 [ms]
[OGL LOG][Proc: 0]p_matrix: call_update: 25.91 [ms]
[OGL LOG][Proc: 0]p_rhs: call_update: 6.362 [ms]
[OGL LOG][Proc: 0]p: init_precond: 0.082 [ms]
[OGL LOG][StoppingCriterion.H:372] Creating stopping criterion with minIter 456 frequency 12
[OGL LOG][Proc: 0]p: generate_solver: 0.002 [ms]
[OGL LOG][Proc: 0]p: solve: 7499.89 [ms]
[OGL LOG][Proc: 0]p: copy_x_back: 0.993 [ms]
[OGL LOG][lduLduBase.H:339] 
Statistics:
	Time per iteration: 10066 [mu s]
	Time per residual norm calculation: 4847.000000 [mu s]
	Time per iteration and DOF: 1.258250 [ns]
	Retrieve results bandwidth 1.007000 [GByte/s]
[OGL LOG][Proc: 0]p: solve_multi_gpu: 7545 [ms]
nonecudaGKOCG:  Solving for p, Initial residual = 0.784681, Final residual = 8.84963e-05, No Iterations 745
[INFO] SolveP: 7582.34 [ms]
time step continuity errors : sum local = 9.52141e-09, global = -7.3526e-22, cumulative = -7.78268e-21
[INFO] ContinuityError: 13.892 [ms]
[INFO] CorrectBoundary: 0.254 [ms]
[INFO] PISOStep: 7790.82 [ms]
[INFO] MatrixAssemblyPI: 109.774 [ms]
[INFO] AdjustPhi: 7.277 [ms]
[INFO] ConstrainPressure: 0.014 [ms]
[INFO] MatrixAssemblyPII: 33.774 [ms]
[OGL LOG][Proc: 0]: global_index_init: 0.092 [ms]
[OGL LOG][Proc: 0]p_local_coeffs: call_update: 0 [ms]
[OGL LOG][Proc: 0]p_non_local_coeffs: call_update: 0 [ms]
[OGL LOG][Proc: 0]p: update_local_matrix_data: 19.664 [ms]
[OGL LOG][Proc: 0]p: update_non_local_matrix_data: 0.268 [ms]
[OGL LOG][Proc: 0]p_matrix: call_update: 15.968 [ms]
[OGL LOG][Proc: 0]p_rhs: call_update: 16.145 [ms]
[OGL LOG][Proc: 0]p: init_precond: 0.067 [ms]
[OGL LOG][StoppingCriterion.H:372] Creating stopping criterion with minIter 447 frequency 12
[OGL LOG][Proc: 0]p: generate_solver: 0.002 [ms]
[OGL LOG][Proc: 0]p: solve: 7498.97 [ms]
[OGL LOG][Proc: 0]p: copy_x_back: 1.228 [ms]
[OGL LOG][lduLduBase.H:339] 
Statistics:
	Time per iteration: 10065 [mu s]
	Time per residual norm calculation: 4113.000000 [mu s]
	Time per iteration and DOF: 1.258125 [ns]
	Retrieve results bandwidth 0.814000 [GByte/s]
[OGL LOG][Proc: 0]p: solve_multi_gpu: 7535.9 [ms]
nonecudaGKOCG:  Solving for p, Initial residual = 0.731977, Final residual = 8.34204e-05, No Iterations 745
[INFO] SolveP: 7578.5 [ms]
time step continuity errors : sum local = 8.73671e-09, global = 6.90663e-23, cumulative = -7.71362e-21
[INFO] ContinuityError: 25.193 [ms]
[INFO] CorrectBoundary: 0.267 [ms]
[INFO] PISOStep: 7785.47 [ms]
[INFO] TimeStep: 16426.1 [ms]
ExecutionTime = 146.94 s  ClockTime = 167 s

Time = 0.0015

Courant Number mean: 0.0365553 max: 0.475491
[INFO] MatrixAssemblyU: 108.194 [ms]
DILUPBiCGStab:  Solving for Ux, Initial residual = 0.0205412, Final residual = 0.000724515, No Iterations 5
DILUPBiCGStab:  Solving for Uy, Initial residual = 0.0663067, Final residual = 0.0028061, No Iterations 5
DILUPBiCGStab:  Solving for Uz, Initial residual = 0.336971, Final residual = 0.00973364, No Iterations 5
[INFO] MomentumPredictor: 732.439 [ms]
[INFO] MatrixAssemblyPI: 114.551 [ms]
[INFO] AdjustPhi: 5.767 [ms]
[INFO] ConstrainPressure: 0.003 [ms]
[INFO] MatrixAssemblyPII: 33.194 [ms]
[OGL LOG][Proc: 0]: global_index_init: 0.015 [ms]
[OGL LOG][Proc: 0]p_local_coeffs: call_update: 0.001 [ms]
[OGL LOG][Proc: 0]p_non_local_coeffs: call_update: 0 [ms]
[OGL LOG][Proc: 0]p: update_local_matrix_data: 20.492 [ms]
[OGL LOG][Proc: 0]p: update_non_local_matrix_data: 0.264 [ms]
[OGL LOG][Proc: 0]p_matrix: call_update: 24.769 [ms]
[OGL LOG][Proc: 0]p_rhs: call_update: 5.939 [ms]
[OGL LOG][Proc: 0]p: init_precond: 0.075 [ms]
[OGL LOG][StoppingCriterion.H:372] Creating stopping criterion with minIter 447 frequency 12
[OGL LOG][Proc: 0]p: generate_solver: 0.001 [ms]
[OGL LOG][Proc: 0]p: solve: 7496.04 [ms]
[OGL LOG][Proc: 0]p: copy_x_back: 0.869 [ms]
[OGL LOG][lduLduBase.H:339] 
Statistics:
	Time per iteration: 10061 [mu s]
	Time per residual norm calculation: 4871.000000 [mu s]
	Time per iteration and DOF: 1.257625 [ns]
	Retrieve results bandwidth 1.150000 [GByte/s]
[OGL LOG][Proc: 0]p: solve_multi_gpu: 7538.41 [ms]
nonecudaGKOCG:  Solving for p, Initial residual = 0.697083, Final residual = 9.32853e-05, No Iterations 745
[INFO] SolveP: 7576.57 [ms]
time step continuity errors : sum local = 1.00763e-08, global = -2.12094e-21, cumulative = -9.83456e-21
[INFO] ContinuityError: 10.024 [ms]
[INFO] CorrectBoundary: 0.255 [ms]
[INFO] PISOStep: 7784.23 [ms]
[INFO] MatrixAssemblyPI: 110.569 [ms]
[INFO] AdjustPhi: 6.407 [ms]
[INFO] ConstrainPressure: 0.016 [ms]
[INFO] MatrixAssemblyPII: 33.147 [ms]
[OGL LOG][Proc: 0]: global_index_init: 0.117 [ms]
[OGL LOG][Proc: 0]p_local_coeffs: call_update: 0 [ms]
[OGL LOG][Proc: 0]p_non_local_coeffs: call_update: 0 [ms]
[OGL LOG][Proc: 0]p: update_local_matrix_data: 20.813 [ms]
[OGL LOG][Proc: 0]p: update_non_local_matrix_data: 0.227 [ms]
[OGL LOG][Proc: 0]p_matrix: call_update: 24.29 [ms]
[OGL LOG][Proc: 0]p_rhs: call_update: 6.006 [ms]
[OGL LOG][Proc: 0]p: init_precond: 0.076 [ms]
[OGL LOG][StoppingCriterion.H:372] Creating stopping criterion with minIter 447 frequency 12
[OGL LOG][Proc: 0]p: generate_solver: 0.004 [ms]
[OGL LOG][Proc: 0]p: solve: 7505.79 [ms]
[OGL LOG][Proc: 0]p: copy_x_back: 0.749 [ms]
[OGL LOG][lduLduBase.H:339] 
Statistics:
	Time per iteration: 10074 [mu s]
	Time per residual norm calculation: 4723.000000 [mu s]
	Time per iteration and DOF: 1.259250 [ns]
	Retrieve results bandwidth 1.335000 [GByte/s]
[OGL LOG][Proc: 0]p: solve_multi_gpu: 7553.19 [ms]
nonecudaGKOCG:  Solving for p, Initial residual = 0.634032, Final residual = 7.65802e-05, No Iterations 745
[INFO] SolveP: 7591.08 [ms]
time step continuity errors : sum local = 7.80514e-09, global = -9.10157e-22, cumulative = -1.07447e-20
[INFO] ContinuityError: 14.612 [ms]
[INFO] CorrectBoundary: 1.918 [ms]
[INFO] PISOStep: 7794.53 [ms]
[INFO] TimeStep: 16430.1 [ms]
ExecutionTime = 163.29 s  ClockTime = 183 s

Time = 0.00175

Courant Number mean: 0.0394706 max: 0.477458
[INFO] MatrixAssemblyU: 112.968 [ms]
DILUPBiCGStab:  Solving for Ux, Initial residual = 0.0175369, Final residual = 0.000581741, No Iterations 5
DILUPBiCGStab:  Solving for Uy, Initial residual = 0.0495209, Final residual = 0.00200241, No Iterations 5
DILUPBiCGStab:  Solving for Uz, Initial residual = 0.263878, Final residual = 0.00874242, No Iterations 5
[INFO] MomentumPredictor: 724.228 [ms]
[INFO] MatrixAssemblyPI: 112.859 [ms]
[INFO] AdjustPhi: 7.714 [ms]
[INFO] ConstrainPressure: 0.002 [ms]
[INFO] MatrixAssemblyPII: 33.776 [ms]
[OGL LOG][Proc: 0]: global_index_init: 0.189 [ms]
[OGL LOG][Proc: 0]p_local_coeffs: call_update: 0 [ms]
[OGL LOG][Proc: 0]p_non_local_coeffs: call_update: 0 [ms]
[OGL LOG][Proc: 0]p: update_local_matrix_data: 21.1 [ms]
[OGL LOG][Proc: 0]p: update_non_local_matrix_data: 0.118 [ms]
[OGL LOG][Proc: 0]p_matrix: call_update: 22.792 [ms]
[OGL LOG][Proc: 0]p_rhs: call_update: 7.812 [ms]
[OGL LOG][Proc: 0]p: init_precond: 0.071 [ms]
[OGL LOG][StoppingCriterion.H:372] Creating stopping criterion with minIter 447 frequency 12
[OGL LOG][Proc: 0]p: generate_solver: 0.002 [ms]
[OGL LOG][Proc: 0]p: solve: 15281.5 [ms]
[OGL LOG][Proc: 0]p: copy_x_back: 0.855 [ms]
[OGL LOG][lduLduBase.H:339] 
Statistics:
	Time per iteration: 10100 [mu s]
	Time per residual norm calculation: 4121.000000 [mu s]
	Time per iteration and DOF: 1.262500 [ns]
	Retrieve results bandwidth 1.169000 [GByte/s]
[OGL LOG][Proc: 0]p: solve_multi_gpu: 15315 [ms]
nonecudaGKOCG:  Solving for p, Initial residual = 0.693113, Final residual = 9.65776e-05, No Iterations 1513
[INFO] SolveP: 15364.2 [ms]
time step continuity errors : sum local = 7.8569e-09, global = -3.71624e-21, cumulative = -1.4461e-20
[INFO] ContinuityError: 8.067 [ms]
[INFO] CorrectBoundary: 1.493 [ms]
[INFO] PISOStep: 15570.9 [ms]
[INFO] MatrixAssemblyPI: 111.073 [ms]
[INFO] AdjustPhi: 5.913 [ms]
[INFO] ConstrainPressure: 0.017 [ms]
[INFO] MatrixAssemblyPII: 33.85 [ms]
[OGL LOG][Proc: 0]: global_index_init: 0.181 [ms]
[OGL LOG][Proc: 0]p_local_coeffs: call_update: 0 [ms]
[OGL LOG][Proc: 0]p_non_local_coeffs: call_update: 0 [ms]
[OGL LOG][Proc: 0]p: update_local_matrix_data: 21.023 [ms]
[OGL LOG][Proc: 0]p: update_non_local_matrix_data: 0.183 [ms]
[OGL LOG][Proc: 0]p_matrix: call_update: 26.004 [ms]
[OGL LOG][Proc: 0]p_rhs: call_update: 5.812 [ms]
[OGL LOG][Proc: 0]p: init_precond: 0.078 [ms]
[OGL LOG][StoppingCriterion.H:372] Creating stopping criterion with minIter 907 frequency 17
[OGL LOG][Proc: 0]p: generate_solver: 0.002 [ms]
[OGL LOG][Proc: 0]p: solve: 15080.9 [ms]
[OGL LOG][Proc: 0]p: copy_x_back: 0.931 [ms]
[OGL LOG][lduLduBase.H:339] 
Statistics:
	Time per iteration: 9960 [mu s]
	Time per residual norm calculation: 3959.000000 [mu s]
	Time per iteration and DOF: 1.245000 [ns]
	Retrieve results bandwidth 1.074000 [GByte/s]
[OGL LOG][Proc: 0]p: solve_multi_gpu: 15115.4 [ms]
nonecudaGKOCG:  Solving for p, Initial residual = 0.63143, Final residual = 9.04287e-05, No Iterations 1514
[INFO] SolveP: 15162.1 [ms]
time step continuity errors : sum local = 7.31319e-09, global = -3.93915e-21, cumulative = -1.84001e-20
[INFO] ContinuityError: 18.527 [ms]
[INFO] CorrectBoundary: 0.294 [ms]
[INFO] PISOStep: 15367 [ms]
[INFO] TimeStep: 31786.1 [ms]
ExecutionTime = 194.91 s  ClockTime = 215 s

Time = 0.002

Courant Number mean: 0.0419967 max: 0.479156
[INFO] MatrixAssemblyU: 110.98 [ms]
DILUPBiCGStab:  Solving for Ux, Initial residual = 0.0143894, Final residual = 0.000448091, No Iterations 5
DILUPBiCGStab:  Solving for Uy, Initial residual = 0.042155, Final residual = 0.00160247, No Iterations 5
DILUPBiCGStab:  Solving for Uz, Initial residual = 0.205848, Final residual = 0.00684454, No Iterations 5
[INFO] MomentumPredictor: 729.077 [ms]
[INFO] MatrixAssemblyPI: 114.93 [ms]
[INFO] AdjustPhi: 5.703 [ms]
[INFO] ConstrainPressure: 0.003 [ms]
[INFO] MatrixAssemblyPII: 33.594 [ms]
[OGL LOG][Proc: 0]: global_index_init: 0.126 [ms]
[OGL LOG][Proc: 0]p_local_coeffs: call_update: 0 [ms]
[OGL LOG][Proc: 0]p_non_local_coeffs: call_update: 0 [ms]
[OGL LOG][Proc: 0]p: update_local_matrix_data: 20.505 [ms]
[OGL LOG][Proc: 0]p: update_non_local_matrix_data: 0.265 [ms]
[OGL LOG][Proc: 0]p_matrix: call_update: 25.348 [ms]
[OGL LOG][Proc: 0]p_rhs: call_update: 6.256 [ms]
[OGL LOG][Proc: 0]p: init_precond: 0.077 [ms]
[OGL LOG][StoppingCriterion.H:372] Creating stopping criterion with minIter 908 frequency 17
[OGL LOG][Proc: 0]p: generate_solver: 0.002 [ms]
[OGL LOG][Proc: 0]p: solve: 15220.2 [ms]
[OGL LOG][Proc: 0]p: copy_x_back: 0.538 [ms]
[OGL LOG][lduLduBase.H:339] 
Statistics:
	Time per iteration: 9941 [mu s]
	Time per residual norm calculation: 4719.000000 [mu s]
	Time per iteration and DOF: 1.242625 [ns]
	Retrieve results bandwidth 1.858000 [GByte/s]
[OGL LOG][Proc: 0]p: solve_multi_gpu: 15263.9 [ms]
nonecudaGKOCG:  Solving for p, Initial residual = 0.605866, Final residual = 7.49169e-05, No Iterations 1531
[INFO] SolveP: 15300.9 [ms]
time step continuity errors : sum local = 5.8036e-09, global = -3.39777e-21, cumulative = -2.17979e-20
[INFO] ContinuityError: 10.242 [ms]
[INFO] CorrectBoundary: 0.366 [ms]
[INFO] PISOStep: 15509 [ms]
[INFO] MatrixAssemblyPI: 111.28 [ms]
[INFO] AdjustPhi: 5.44 [ms]
[INFO] ConstrainPressure: 0.014 [ms]
[INFO] MatrixAssemblyPII: 33.548 [ms]
[OGL LOG][Proc: 0]: global_index_init: 0.243 [ms]
[OGL LOG][Proc: 0]p_local_coeffs: call_update: 0 [ms]
[OGL LOG][Proc: 0]p_non_local_coeffs: call_update: 0 [ms]
[OGL LOG][Proc: 0]p: update_local_matrix_data: 20.975 [ms]
[OGL LOG][Proc: 0]p: update_non_local_matrix_data: 0.256 [ms]
[OGL LOG][Proc: 0]p_matrix: call_update: 29.007 [ms]
[OGL LOG][Proc: 0]p_rhs: call_update: 3.087 [ms]
[OGL LOG][Proc: 0]p: init_precond: 0.079 [ms]
[OGL LOG][StoppingCriterion.H:372] Creating stopping criterion with minIter 918 frequency 17
[OGL LOG][Proc: 0]p: generate_solver: 0.002 [ms]
[OGL LOG][Proc: 0]p: solve: 15240.2 [ms]
[OGL LOG][Proc: 0]p: copy_x_back: 0.668 [ms]
[OGL LOG][lduLduBase.H:339] 
Statistics:
	Time per iteration: 9954 [mu s]
	Time per residual norm calculation: 4725.000000 [mu s]
	Time per iteration and DOF: 1.244250 [ns]
	Retrieve results bandwidth 1.497000 [GByte/s]
[OGL LOG][Proc: 0]p: solve_multi_gpu: 15279 [ms]
nonecudaGKOCG:  Solving for p, Initial residual = 0.54646, Final residual = 7.09164e-05, No Iterations 1531
[INFO] SolveP: 15320.5 [ms]
time step continuity errors : sum local = 5.48131e-09, global = -4.75368e-21, cumulative = -2.65516e-20
[INFO] ContinuityError: 13.534 [ms]
[INFO] CorrectBoundary: 0.238 [ms]
[INFO] PISOStep: 15525.6 [ms]
[INFO] TimeStep: 31885.4 [ms]
ExecutionTime = 226.64 s  ClockTime = 247 s

Time = 0.00225

Courant Number mean: 0.0442839 max: 0.480313
[INFO] MatrixAssemblyU: 111.162 [ms]
DILUPBiCGStab:  Solving for Ux, Initial residual = 0.0126613, Final residual = 0.000370877, No Iterations 5
DILUPBiCGStab:  Solving for Uy, Initial residual = 0.0340101, Final residual = 0.00110671, No Iterations 5
DILUPBiCGStab:  Solving for Uz, Initial residual = 0.16699, Final residual = 0.00627391, No Iterations 5
[INFO] MomentumPredictor: 726.634 [ms]
[INFO] MatrixAssemblyPI: 115.313 [ms]
[INFO] AdjustPhi: 5.246 [ms]
[INFO] ConstrainPressure: 0.003 [ms]
[INFO] MatrixAssemblyPII: 33.817 [ms]
[OGL LOG][Proc: 0]: global_index_init: 0.246 [ms]
[OGL LOG][Proc: 0]p_local_coeffs: call_update: 0 [ms]
[OGL LOG][Proc: 0]p_non_local_coeffs: call_update: 0 [ms]
[OGL LOG][Proc: 0]p: update_local_matrix_data: 21.119 [ms]
[OGL LOG][Proc: 0]p: update_non_local_matrix_data: 0.099 [ms]
[OGL LOG][Proc: 0]p_matrix: call_update: 29.268 [ms]
[OGL LOG][Proc: 0]p_rhs: call_update: 3.379 [ms]
[OGL LOG][Proc: 0]p: init_precond: 0.079 [ms]
[OGL LOG][StoppingCriterion.H:372] Creating stopping criterion with minIter 918 frequency 17
[OGL LOG][Proc: 0]p: generate_solver: 0.002 [ms]
[OGL LOG][Proc: 0]p: solve: 15121.3 [ms]
[OGL LOG][Proc: 0]p: copy_x_back: 1.186 [ms]
[OGL LOG][lduLduBase.H:339] 
Statistics:
	Time per iteration: 9987 [mu s]
	Time per residual norm calculation: 4118.000000 [mu s]
	Time per iteration and DOF: 1.248375 [ns]
	Retrieve results bandwidth 0.843000 [GByte/s]
[OGL LOG][Proc: 0]p: solve_multi_gpu: 15156.5 [ms]
nonecudaGKOCG:  Solving for p, Initial residual = 0.593453, Final residual = 7.77942e-05, No Iterations 1514
[INFO] SolveP: 15198.1 [ms]
time step continuity errors : sum local = 5.2059e-09, global = -2.53216e-21, cumulative = -2.90837e-20
[INFO] ContinuityError: 29.874 [ms]
[INFO] CorrectBoundary: 0.317 [ms]
[INFO] PISOStep: 15412.7 [ms]
[INFO] MatrixAssemblyPI: 107.556 [ms]
[INFO] AdjustPhi: 8.88 [ms]
[INFO] ConstrainPressure: 0.02 [ms]
[INFO] MatrixAssemblyPII: 33.771 [ms]
[OGL LOG][Proc: 0]: global_index_init: 0.156 [ms]
[OGL LOG][Proc: 0]p_local_coeffs: call_update: 0 [ms]
[OGL LOG][Proc: 0]p_non_local_coeffs: call_update: 0 [ms]
[OGL LOG][Proc: 0]p: update_local_matrix_data: 21.224 [ms]
[OGL LOG][Proc: 0]p: update_non_local_matrix_data: 0.074 [ms]
[OGL LOG][Proc: 0]p_matrix: call_update: 23.555 [ms]
[OGL LOG][Proc: 0]p_rhs: call_update: 7.726 [ms]
[OGL LOG][Proc: 0]p: init_precond: 0.079 [ms]
[OGL LOG][StoppingCriterion.H:372] Creating stopping criterion with minIter 908 frequency 17
[OGL LOG][Proc: 0]p: generate_solver: 0.002 [ms]
[OGL LOG][Proc: 0]p: solve: 14908.5 [ms]
[OGL LOG][Proc: 0]p: copy_x_back: 1.019 [ms]
[OGL LOG][lduLduBase.H:339] 
Statistics:
	Time per iteration: 9958 [mu s]
	Time per residual norm calculation: 4418.000000 [mu s]
	Time per iteration and DOF: 1.244750 [ns]
	Retrieve results bandwidth 0.981000 [GByte/s]
[OGL LOG][Proc: 0]p: solve_multi_gpu: 14945.5 [ms]
nonecudaGKOCG:  Solving for p, Initial residual = 0.531165, Final residual = 9.54592e-05, No Iterations 1497
[INFO] SolveP: 14986.6 [ms]
time step continuity errors : sum local = 6.38075e-09, global = -4.29643e-21, cumulative = -3.33802e-20
[INFO] ContinuityError: 26.688 [ms]
[INFO] CorrectBoundary: 0.385 [ms]
[INFO] PISOStep: 15193.8 [ms]
[INFO] TimeStep: 31455.1 [ms]
ExecutionTime = 257.93 s  ClockTime = 278 s

Time = 0.0025

Courant Number mean: 0.0463406 max: 0.481418
[INFO] MatrixAssemblyU: 106.801 [ms]
DILUPBiCGStab:  Solving for Ux, Initial residual = 0.0108999, Final residual = 0.000300833, No Iterations 5
DILUPBiCGStab:  Solving for Uy, Initial residual = 0.0297679, Final residual = 0.000924014, No Iterations 5
DILUPBiCGStab:  Solving for Uz, Initial residual = 0.134864, Final residual = 0.00525154, No Iterations 5
[INFO] MomentumPredictor: 730.522 [ms]
[INFO] MatrixAssemblyPI: 114.739 [ms]
[INFO] AdjustPhi: 5.586 [ms]
[INFO] ConstrainPressure: 0.003 [ms]
[INFO] MatrixAssemblyPII: 33.983 [ms]
[OGL LOG][Proc: 0]: global_index_init: 0.209 [ms]
[OGL LOG][Proc: 0]p_local_coeffs: call_update: 0 [ms]
[OGL LOG][Proc: 0]p_non_local_coeffs: call_update: 0 [ms]
[OGL LOG][Proc: 0]p: update_local_matrix_data: 21.172 [ms]
[OGL LOG][Proc: 0]p: update_non_local_matrix_data: 0.139 [ms]
[OGL LOG][Proc: 0]p_matrix: call_update: 28.451 [ms]
[OGL LOG][Proc: 0]p_rhs: call_update: 4.897 [ms]
[OGL LOG][Proc: 0]p: init_precond: 0.081 [ms]
[OGL LOG][StoppingCriterion.H:372] Creating stopping criterion with minIter 898 frequency 17
[OGL LOG][Proc: 0]p: generate_solver: 0.002 [ms]
[OGL LOG][Proc: 0]p: solve: 14884.7 [ms]
[OGL LOG][Proc: 0]p: copy_x_back: 0.517 [ms]
[OGL LOG][lduLduBase.H:339] 
Statistics:
	Time per iteration: 9943 [mu s]
	Time per residual norm calculation: 4402.000000 [mu s]
	Time per iteration and DOF: 1.242875 [ns]
	Retrieve results bandwidth 1.934000 [GByte/s]
[OGL LOG][Proc: 0]p: solve_multi_gpu: 14933.4 [ms]
nonecudaGKOCG:  Solving for p, Initial residual = 0.519005, Final residual = 9.11332e-05, No Iterations 1497
[INFO] SolveP: 14966.4 [ms]
time step continuity errors : sum local = 5.91339e-09, global = -4.27213e-21, cumulative = -3.76523e-20
[INFO] ContinuityError: 23.528 [ms]
[INFO] CorrectBoundary: 1.016 [ms]
[INFO] PISOStep: 15174.5 [ms]
[INFO] MatrixAssemblyPI: 109.384 [ms]
[INFO] AdjustPhi: 7.608 [ms]
[INFO] ConstrainPressure: 0.016 [ms]
[INFO] MatrixAssemblyPII: 33.783 [ms]
[OGL LOG][Proc: 0]: global_index_init: 0.17 [ms]
[OGL LOG][Proc: 0]p_local_coeffs: call_update: 0 [ms]
[OGL LOG][Proc: 0]p_non_local_coeffs: call_update: 0 [ms]
[OGL LOG][Proc: 0]p: update_local_matrix_data: 20.904 [ms]
[OGL LOG][Proc: 0]p: update_non_local_matrix_data: 0.179 [ms]
[OGL LOG][Proc: 0]p_matrix: call_update: 23.876 [ms]
[OGL LOG][Proc: 0]p_rhs: call_update: 5.974 [ms]
[OGL LOG][Proc: 0]p: init_precond: 0.074 [ms]
[OGL LOG][StoppingCriterion.H:372] Creating stopping criterion with minIter 898 frequency 17
[OGL LOG][Proc: 0]p: generate_solver: 0.002 [ms]
[OGL LOG][Proc: 0]p: solve: 14915.7 [ms]
[OGL LOG][Proc: 0]p: copy_x_back: 1.415 [ms]
[OGL LOG][lduLduBase.H:339] 
Statistics:
	Time per iteration: 9963 [mu s]
	Time per residual norm calculation: 3963.000000 [mu s]
	Time per iteration and DOF: 1.245375 [ns]
	Retrieve results bandwidth 0.706000 [GByte/s]
[OGL LOG][Proc: 0]p: solve_multi_gpu: 14954.2 [ms]
nonecudaGKOCG:  Solving for p, Initial residual = 0.464488, Final residual = 8.9299e-05, No Iterations 1497
[INFO] SolveP: 14994.3 [ms]
time step continuity errors : sum local = 5.76986e-09, global = -3.73497e-21, cumulative = -4.13873e-20
[INFO] ContinuityError: 23.844 [ms]
[INFO] CorrectBoundary: 0.331 [ms]
[INFO] PISOStep: 15200.8 [ms]
[INFO] TimeStep: 31223.3 [ms]
ExecutionTime = 289 s  ClockTime = 309 s

Time = 0.00275

Courant Number mean: 0.0482318 max: 0.482196
[INFO] MatrixAssemblyU: 109.674 [ms]
DILUPBiCGStab:  Solving for Ux, Initial residual = 0.00976431, Final residual = 0.000253635, No Iterations 5
DILUPBiCGStab:  Solving for Uy, Initial residual = 0.0252116, Final residual = 0.000653773, No Iterations 5
DILUPBiCGStab:  Solving for Uz, Initial residual = 0.11335, Final residual = 0.00487832, No Iterations 5
[INFO] MomentumPredictor: 727.748 [ms]
[INFO] MatrixAssemblyPI: 115.094 [ms]
[INFO] AdjustPhi: 5.313 [ms]
[INFO] ConstrainPressure: 0.003 [ms]
[INFO] MatrixAssemblyPII: 33.741 [ms]
[OGL LOG][Proc: 0]: global_index_init: 0.094 [ms]
[OGL LOG][Proc: 0]p_local_coeffs: call_update: 0.001 [ms]
[OGL LOG][Proc: 0]p_non_local_coeffs: call_update: 0 [ms]
[OGL LOG][Proc: 0]p: update_local_matrix_data: 20.549 [ms]
[OGL LOG][Proc: 0]p: update_non_local_matrix_data: 0.218 [ms]
[OGL LOG][Proc: 0]p_matrix: call_update: 28.107 [ms]
[OGL LOG][Proc: 0]p_rhs: call_update: 6.014 [ms]
[OGL LOG][Proc: 0]p: init_precond: 0.076 [ms]
[OGL LOG][StoppingCriterion.H:372] Creating stopping criterion with minIter 898 frequency 17
[OGL LOG][Proc: 0]p: generate_solver: 0.002 [ms]
[OGL LOG][Proc: 0]p: solve: 14901.2 [ms]
[OGL LOG][Proc: 0]p: copy_x_back: 0.761 [ms]
[OGL LOG][lduLduBase.H:339] 
Statistics:
	Time per iteration: 9954 [mu s]
	Time per residual norm calculation: 4573.000000 [mu s]
	Time per iteration and DOF: 1.244250 [ns]
	Retrieve results bandwidth 1.314000 [GByte/s]
[OGL LOG][Proc: 0]p: solve_multi_gpu: 14945.1 [ms]
nonecudaGKOCG:  Solving for p, Initial residual = 0.49567, Final residual = 7.31621e-05, No Iterations 1497
[INFO] SolveP: 14982.7 [ms]
time step continuity errors : sum local = 4.28032e-09, global = -5.27573e-21, cumulative = -4.6663e-20
[INFO] ContinuityError: 25.352 [ms]
[INFO] CorrectBoundary: 0.609 [ms]
[INFO] PISOStep: 15192.5 [ms]
[INFO] MatrixAssemblyPI: 110.511 [ms]
[INFO] AdjustPhi: 5.614 [ms]
[INFO] ConstrainPressure: 0.018 [ms]
[INFO] MatrixAssemblyPII: 33.528 [ms]
[OGL LOG][Proc: 0]: global_index_init: 0.182 [ms]
[OGL LOG][Proc: 0]p_local_coeffs: call_update: 0 [ms]
[OGL LOG][Proc: 0]p_non_local_coeffs: call_update: 0 [ms]
[OGL LOG][Proc: 0]p: update_local_matrix_data: 21.181 [ms]
[OGL LOG][Proc: 0]p: update_non_local_matrix_data: 0.116 [ms]
[OGL LOG][Proc: 0]p_matrix: call_update: 32.828 [ms]
[OGL LOG][Proc: 0]p_rhs: call_update: 1.848 [ms]
[OGL LOG][Proc: 0]p: init_precond: 0.079 [ms]
[OGL LOG][StoppingCriterion.H:372] Creating stopping criterion with minIter 898 frequency 17
[OGL LOG][Proc: 0]p: generate_solver: 0.001 [ms]
[OGL LOG][Proc: 0]p: solve: 14900.7 [ms]
[OGL LOG][Proc: 0]p: copy_x_back: 1.11 [ms]
[OGL LOG][lduLduBase.H:339] 
Statistics:
	Time per iteration: 9953 [mu s]
	Time per residual norm calculation: 4409.000000 [mu s]
	Time per iteration and DOF: 1.244125 [ns]
	Retrieve results bandwidth 0.900000 [GByte/s]
[OGL LOG][Proc: 0]p: solve_multi_gpu: 14946.1 [ms]
nonecudaGKOCG:  Solving for p, Initial residual = 0.439781, Final residual = 6.89807e-05, No Iterations 1497
[INFO] SolveP: 14984.4 [ms]
time step continuity errors : sum local = 4.0375e-09, global = -5.92426e-21, cumulative = -5.25872e-20
[INFO] ContinuityError: 23.824 [ms]
[INFO] CorrectBoundary: 0.329 [ms]
[INFO] PISOStep: 15188.5 [ms]
[INFO] TimeStep: 31229.1 [ms]
ExecutionTime = 320.08 s  ClockTime = 341 s

Time = 0.003

Courant Number mean: 0.0499683 max: 0.482986
[INFO] MatrixAssemblyU: 111.296 [ms]
DILUPBiCGStab:  Solving for Ux, Initial residual = 0.0086678, Final residual = 0.000213193, No Iterations 5
DILUPBiCGStab:  Solving for Uy, Initial residual = 0.022507, Final residual = 0.000551412, No Iterations 5
DILUPBiCGStab:  Solving for Uz, Initial residual = 0.0947817, Final residual = 0.00420733, No Iterations 5
[INFO] MomentumPredictor: 726.098 [ms]
[INFO] MatrixAssemblyPI: 114.874 [ms]
[INFO] AdjustPhi: 5.337 [ms]
[INFO] ConstrainPressure: 0.002 [ms]
[INFO] MatrixAssemblyPII: 33.88 [ms]
[OGL LOG][Proc: 0]: global_index_init: 0.073 [ms]
[OGL LOG][Proc: 0]p_local_coeffs: call_update: 0 [ms]
[OGL LOG][Proc: 0]p_non_local_coeffs: call_update: 0 [ms]
[OGL LOG][Proc: 0]p: update_local_matrix_data: 20.616 [ms]
[OGL LOG][Proc: 0]p: update_non_local_matrix_data: 0.242 [ms]
[OGL LOG][Proc: 0]p_matrix: call_update: 24.656 [ms]
[OGL LOG][Proc: 0]p_rhs: call_update: 7.397 [ms]
[OGL LOG][Proc: 0]p: init_precond: 0.083 [ms]
[OGL LOG][StoppingCriterion.H:372] Creating stopping criterion with minIter 898 frequency 17
[OGL LOG][Proc: 0]p: generate_solver: 0.002 [ms]
[OGL LOG][Proc: 0]p: solve: 14885.4 [ms]
[OGL LOG][Proc: 0]p: copy_x_back: 0.633 [ms]
[OGL LOG][lduLduBase.H:339] 
Statistics:
	Time per iteration: 9943 [mu s]
	Time per residual norm calculation: 5008.000000 [mu s]
	Time per iteration and DOF: 1.242875 [ns]
	Retrieve results bandwidth 1.579000 [GByte/s]
[OGL LOG][Proc: 0]p: solve_multi_gpu: 14928.5 [ms]
nonecudaGKOCG:  Solving for p, Initial residual = 0.439035, Final residual = 7.27145e-05, No Iterations 1497
[INFO] SolveP: 14965.3 [ms]
time step continuity errors : sum local = 4.12578e-09, global = -1.94158e-21, cumulative = -5.45288e-20
[INFO] ContinuityError: 23.622 [ms]
[INFO] CorrectBoundary: 0.661 [ms]
[INFO] PISOStep: 15173.8 [ms]
[INFO] MatrixAssemblyPI: 110.738 [ms]
[INFO] AdjustPhi: 6.361 [ms]
[INFO] ConstrainPressure: 0.014 [ms]
[INFO] MatrixAssemblyPII: 33.446 [ms]
[OGL LOG][Proc: 0]: global_index_init: 0.095 [ms]
[OGL LOG][Proc: 0]p_local_coeffs: call_update: 0 [ms]
[OGL LOG][Proc: 0]p_non_local_coeffs: call_update: 0 [ms]
[OGL LOG][Proc: 0]p: update_local_matrix_data: 21.022 [ms]
[OGL LOG][Proc: 0]p: update_non_local_matrix_data: 0.275 [ms]
[OGL LOG][Proc: 0]p_matrix: call_update: 23.748 [ms]
[OGL LOG][Proc: 0]p_rhs: call_update: 7.852 [ms]
[OGL LOG][Proc: 0]p: init_precond: 0.075 [ms]
[OGL LOG][StoppingCriterion.H:372] Creating stopping criterion with minIter 898 frequency 24
[OGL LOG][Proc: 0]p: generate_solver: 0.002 [ms]
[OGL LOG][Proc: 0]p: solve: 14740.5 [ms]
[OGL LOG][Proc: 0]p: copy_x_back: 0.376 [ms]
[OGL LOG][lduLduBase.H:339] 
Statistics:
	Time per iteration: 9899 [mu s]
	Time per residual norm calculation: 4859.000000 [mu s]
	Time per iteration and DOF: 1.237375 [ns]
	Retrieve results bandwidth 2.659000 [GByte/s]
[OGL LOG][Proc: 0]p: solve_multi_gpu: 14779.1 [ms]
nonecudaGKOCG:  Solving for p, Initial residual = 0.390405, Final residual = 8.31863e-05, No Iterations 1489
[INFO] SolveP: 14823.2 [ms]
time step continuity errors : sum local = 4.69918e-09, global = -1.7546e-21, cumulative = -5.62834e-20
[INFO] ContinuityError: 6.871 [ms]
[INFO] CorrectBoundary: 0.636 [ms]
[INFO] PISOStep: 15024.6 [ms]
[INFO] TimeStep: 31046.5 [ms]
ExecutionTime = 350.97 s  ClockTime = 372 s

Time = 0.00325

Courant Number mean: 0.0515816 max: 0.483554
[INFO] MatrixAssemblyU: 105.792 [ms]
DILUPBiCGStab:  Solving for Ux, Initial residual = 0.00786747, Final residual = 0.000182423, No Iterations 5
DILUPBiCGStab:  Solving for Uy, Initial residual = 0.0196943, Final residual = 0.000428256, No Iterations 5
DILUPBiCGStab:  Solving for Uz, Initial residual = 0.0812115, Final residual = 0.0038679, No Iterations 5
[INFO] MomentumPredictor: 732.133 [ms]
[INFO] MatrixAssemblyPI: 115.142 [ms]
[INFO] AdjustPhi: 5.25 [ms]
[INFO] ConstrainPressure: 0.002 [ms]
[INFO] MatrixAssemblyPII: 33.91 [ms]
[OGL LOG][Proc: 0]: global_index_init: 0.08 [ms]
[OGL LOG][Proc: 0]p_local_coeffs: call_update: 0 [ms]
[OGL LOG][Proc: 0]p_non_local_coeffs: call_update: 0 [ms]
[OGL LOG][Proc: 0]p: update_local_matrix_data: 20.914 [ms]
[OGL LOG][Proc: 0]p: update_non_local_matrix_data: 0.223 [ms]
[OGL LOG][Proc: 0]p_matrix: call_update: 23.298 [ms]
[OGL LOG][Proc: 0]p_rhs: call_update: 6.318 [ms]
[OGL LOG][Proc: 0]p: init_precond: 0.078 [ms]
[OGL LOG][StoppingCriterion.H:372] Creating stopping criterion with minIter 893 frequency 17
[OGL LOG][Proc: 0]p: generate_solver: 0.002 [ms]
[OGL LOG][Proc: 0]p: solve: 14725.3 [ms]
[OGL LOG][Proc: 0]p: copy_x_back: 0.441 [ms]
[OGL LOG][lduLduBase.H:339] 
Statistics:
	Time per iteration: 9949 [mu s]
	Time per residual norm calculation: 4871.000000 [mu s]
	Time per iteration and DOF: 1.243625 [ns]
	Retrieve results bandwidth 2.267000 [GByte/s]
[OGL LOG][Proc: 0]p: solve_multi_gpu: 14763.3 [ms]
nonecudaGKOCG:  Solving for p, Initial residual = 0.409379, Final residual = 9.65618e-05, No Iterations 1480
[INFO] SolveP: 14801.8 [ms]
time step continuity errors : sum local = 5.11069e-09, global = -5.27616e-21, cumulative = -6.15596e-20
[INFO] ContinuityError: 24.2 [ms]
[INFO] CorrectBoundary: 0.395 [ms]
[INFO] PISOStep: 15011.1 [ms]
[INFO] MatrixAssemblyPI: 109.67 [ms]
[INFO] AdjustPhi: 7.148 [ms]
[INFO] ConstrainPressure: 0.016 [ms]
[INFO] MatrixAssemblyPII: 33.865 [ms]
[OGL LOG][Proc: 0]: global_index_init: 0.32 [ms]
[OGL LOG][Proc: 0]p_local_coeffs: call_update: 0 [ms]
[OGL LOG][Proc: 0]p_non_local_coeffs: call_update: 0 [ms]
[OGL LOG][Proc: 0]p: update_local_matrix_data: 21.279 [ms]
[OGL LOG][Proc: 0]p: update_non_local_matrix_data: 0.101 [ms]
[OGL LOG][Proc: 0]p_matrix: call_update: 29.439 [ms]
[OGL LOG][Proc: 0]p_rhs: call_update: 3.664 [ms]
[OGL LOG][Proc: 0]p: init_precond: 0.079 [ms]
[OGL LOG][StoppingCriterion.H:372] Creating stopping criterion with minIter 888 frequency 17
[OGL LOG][Proc: 0]p: generate_solver: 0.002 [ms]
[OGL LOG][Proc: 0]p: solve: 14769.1 [ms]
[OGL LOG][Proc: 0]p: copy_x_back: 0.616 [ms]
[OGL LOG][lduLduBase.H:339] 
Statistics:
	Time per iteration: 9979 [mu s]
	Time per residual norm calculation: 4891.000000 [mu s]
	Time per iteration and DOF: 1.247375 [ns]
	Retrieve results bandwidth 1.623000 [GByte/s]
[OGL LOG][Proc: 0]p: solve_multi_gpu: 14811 [ms]
nonecudaGKOCG:  Solving for p, Initial residual = 0.361231, Final residual = 8.93403e-05, No Iterations 1480
[INFO] SolveP: 14851.1 [ms]
time step continuity errors : sum local = 4.7321e-09, global = -3.04257e-21, cumulative = -6.46022e-20
[INFO] ContinuityError: 11.454 [ms]
[INFO] CorrectBoundary: 0.382 [ms]
[INFO] PISOStep: 15056.1 [ms]
[INFO] TimeStep: 30915.9 [ms]
ExecutionTime = 381.74 s  ClockTime = 403 s

Time = 0.0035

Courant Number mean: 0.0530803 max: 0.48415
[INFO] MatrixAssemblyU: 109.138 [ms]
DILUPBiCGStab:  Solving for Ux, Initial residual = 0.00712883, Final residual = 0.000157041, No Iterations 5
DILUPBiCGStab:  Solving for Uy, Initial residual = 0.0178519, Final residual = 0.000364357, No Iterations 5
DILUPBiCGStab:  Solving for Uz, Initial residual = 0.0699581, Final residual = 0.00340939, No Iterations 5
[INFO] MomentumPredictor: 728.678 [ms]
[INFO] MatrixAssemblyPI: 115.08 [ms]
[INFO] AdjustPhi: 5.322 [ms]
[INFO] ConstrainPressure: 0.003 [ms]
[INFO] MatrixAssemblyPII: 33.87 [ms]
[OGL LOG][Proc: 0]: global_index_init: 0.168 [ms]
[OGL LOG][Proc: 0]p_local_coeffs: call_update: 0 [ms]
[OGL LOG][Proc: 0]p_non_local_coeffs: call_update: 0 [ms]
[OGL LOG][Proc: 0]p: update_local_matrix_data: 20.751 [ms]
[OGL LOG][Proc: 0]p: update_non_local_matrix_data: 0.202 [ms]
[OGL LOG][Proc: 0]p_matrix: call_update: 22.208 [ms]
[OGL LOG][Proc: 0]p_rhs: call_update: 10.092 [ms]
[OGL LOG][Proc: 0]p: init_precond: 0.076 [ms]
[OGL LOG][StoppingCriterion.H:372] Creating stopping criterion with minIter 888 frequency 17
[OGL LOG][Proc: 0]p: generate_solver: 0.002 [ms]
[OGL LOG][Proc: 0]p: solve: 14867.2 [ms]
[OGL LOG][Proc: 0]p: copy_x_back: 0.615 [ms]
[OGL LOG][lduLduBase.H:339] 
Statistics:
	Time per iteration: 9931 [mu s]
	Time per residual norm calculation: 4113.000000 [mu s]
	Time per iteration and DOF: 1.241375 [ns]
	Retrieve results bandwidth 1.626000 [GByte/s]
[OGL LOG][Proc: 0]p: solve_multi_gpu: 14902.4 [ms]
nonecudaGKOCG:  Solving for p, Initial residual = 0.366885, Final residual = 6.38037e-05, No Iterations 1497
[INFO] SolveP: 14943.2 [ms]
time step continuity errors : sum local = 3.26057e-09, global = -4.48868e-21, cumulative = -6.90908e-20
[INFO] ContinuityError: 27.435 [ms]
[INFO] CorrectBoundary: 0.288 [ms]
[INFO] PISOStep: 15155.2 [ms]
[INFO] MatrixAssemblyPI: 111.737 [ms]
[INFO] AdjustPhi: 5.597 [ms]
[INFO] ConstrainPressure: 0.016 [ms]
[INFO] MatrixAssemblyPII: 33.773 [ms]
[OGL LOG][Proc: 0]: global_index_init: 0.229 [ms]
[OGL LOG][Proc: 0]p_local_coeffs: call_update: 0 [ms]
[OGL LOG][Proc: 0]p_non_local_coeffs: call_update: 0 [ms]
[OGL LOG][Proc: 0]p: update_local_matrix_data: 21.182 [ms]
[OGL LOG][Proc: 0]p: update_non_local_matrix_data: 0.15 [ms]
[OGL LOG][Proc: 0]p_matrix: call_update: 23.172 [ms]
[OGL LOG][Proc: 0]p_rhs: call_update: 8.848 [ms]
[OGL LOG][Proc: 0]p: init_precond: 0.081 [ms]
[OGL LOG][StoppingCriterion.H:372] Creating stopping criterion with minIter 898 frequency 17
[OGL LOG][Proc: 0]p: generate_solver: 0.001 [ms]
[OGL LOG][Proc: 0]p: solve: 14900.6 [ms]
[OGL LOG][Proc: 0]p: copy_x_back: 0.754 [ms]
[OGL LOG][lduLduBase.H:339] 
Statistics:
	Time per iteration: 9953 [mu s]
	Time per residual norm calculation: 4106.000000 [mu s]
	Time per iteration and DOF: 1.244125 [ns]
	Retrieve results bandwidth 1.326000 [GByte/s]
[OGL LOG][Proc: 0]p: solve_multi_gpu: 14936.9 [ms]
nonecudaGKOCG:  Solving for p, Initial residual = 0.325131, Final residual = 5.99705e-05, No Iterations 1497
[INFO] SolveP: 14983.5 [ms]
time step continuity errors : sum local = 3.05271e-09, global = -1.3261e-21, cumulative = -7.04169e-20
[INFO] ContinuityError: 9.7 [ms]
[INFO] CorrectBoundary: 0.352 [ms]
[INFO] PISOStep: 15187.8 [ms]
[INFO] TimeStep: 31193.3 [ms]
ExecutionTime = 412.77 s  ClockTime = 434 s

Time = 0.00375

Courant Number mean: 0.0544858 max: 0.484592
[INFO] MatrixAssemblyU: 110.037 [ms]
DILUPBiCGStab:  Solving for Ux, Initial residual = 0.00653745, Final residual = 0.000136155, No Iterations 5
DILUPBiCGStab:  Solving for Uy, Initial residual = 0.0159813, Final residual = 0.000312749, No Iterations 5
DILUPBiCGStab:  Solving for Uz, Initial residual = 0.0607194, Final residual = 0.00308366, No Iterations 5
[INFO] MomentumPredictor: 727.963 [ms]
[INFO] MatrixAssemblyPI: 114.853 [ms]
[INFO] AdjustPhi: 5.459 [ms]
[INFO] ConstrainPressure: 0.002 [ms]
[INFO] MatrixAssemblyPII: 33.813 [ms]
[OGL LOG][Proc: 0]: global_index_init: 0.099 [ms]
[OGL LOG][Proc: 0]p_local_coeffs: call_update: 0 [ms]
[OGL LOG][Proc: 0]p_non_local_coeffs: call_update: 0 [ms]
[OGL LOG][Proc: 0]p: update_local_matrix_data: 20.916 [ms]
[OGL LOG][Proc: 0]p: update_non_local_matrix_data: 0.227 [ms]
[OGL LOG][Proc: 0]p_matrix: call_update: 25.686 [ms]
[OGL LOG][Proc: 0]p_rhs: call_update: 5.746 [ms]
[OGL LOG][Proc: 0]p: init_precond: 0.08 [ms]
[OGL LOG][StoppingCriterion.H:372] Creating stopping criterion with minIter 898 frequency 17
[OGL LOG][Proc: 0]p: generate_solver: 0.002 [ms]
[OGL LOG][Proc: 0]p: solve: 14732.5 [ms]
[OGL LOG][Proc: 0]p: copy_x_back: 0.754 [ms]
[OGL LOG][lduLduBase.H:339] 
Statistics:
	Time per iteration: 9954 [mu s]
	Time per residual norm calculation: 4866.000000 [mu s]
	Time per iteration and DOF: 1.244250 [ns]
	Retrieve results bandwidth 1.326000 [GByte/s]
[OGL LOG][Proc: 0]p: solve_multi_gpu: 14775.4 [ms]
nonecudaGKOCG:  Solving for p, Initial residual = 0.334961, Final residual = 9.21596e-05, No Iterations 1480
[INFO] SolveP: 14812.3 [ms]
time step continuity errors : sum local = 4.50897e-09, global = -5.59869e-21, cumulative = -7.60156e-20
[INFO] ContinuityError: 24.346 [ms]
[INFO] CorrectBoundary: 1.027 [ms]
[INFO] PISOStep: 15021.4 [ms]
[INFO] MatrixAssemblyPI: 111.053 [ms]
[INFO] AdjustPhi: 5.583 [ms]
[INFO] ConstrainPressure: 0.018 [ms]
[INFO] MatrixAssemblyPII: 33.809 [ms]
[OGL LOG][Proc: 0]: global_index_init: 0.166 [ms]
[OGL LOG][Proc: 0]p_local_coeffs: call_update: 0 [ms]
[OGL LOG][Proc: 0]p_non_local_coeffs: call_update: 0 [ms]
[OGL LOG][Proc: 0]p: update_local_matrix_data: 20.52 [ms]
[OGL LOG][Proc: 0]p: update_non_local_matrix_data: 0.27 [ms]
[OGL LOG][Proc: 0]p_matrix: call_update: 20.871 [ms]
[OGL LOG][Proc: 0]p_rhs: call_update: 10.044 [ms]
[OGL LOG][Proc: 0]p: init_precond: 0.072 [ms]
[OGL LOG][StoppingCriterion.H:372] Creating stopping criterion with minIter 888 frequency 17
[OGL LOG][Proc: 0]p: generate_solver: 0.003 [ms]
[OGL LOG][Proc: 0]p: solve: 14731.9 [ms]
[OGL LOG][Proc: 0]p: copy_x_back: 0.811 [ms]
[OGL LOG][lduLduBase.H:339] 
Statistics:
	Time per iteration: 9954 [mu s]
	Time per residual norm calculation: 4429.000000 [mu s]
	Time per iteration and DOF: 1.244250 [ns]
	Retrieve results bandwidth 1.233000 [GByte/s]
[OGL LOG][Proc: 0]p: solve_multi_gpu: 14766.7 [ms]
nonecudaGKOCG:  Solving for p, Initial residual = 0.294844, Final residual = 8.46142e-05, No Iterations 1480
[INFO] SolveP: 14808.1 [ms]
time step continuity errors : sum local = 4.14257e-09, global = -4.91738e-21, cumulative = -8.0933e-20
[INFO] ContinuityError: 27.563 [ms]
[INFO] CorrectBoundary: 1.472 [ms]
[INFO] PISOStep: 15016.5 [ms]
[INFO] TimeStep: 30886.5 [ms]
ExecutionTime = 443.51 s  ClockTime = 465 s

Time = 0.004

Courant Number mean: 0.0558024 max: 0.485057
[INFO] MatrixAssemblyU: 110.567 [ms]
DILUPBiCGStab:  Solving for Ux, Initial residual = 0.00601019, Final residual = 0.000119592, No Iterations 5
DILUPBiCGStab:  Solving for Uy, Initial residual = 0.0146638, Final residual = 0.000269623, No Iterations 5
DILUPBiCGStab:  Solving for Uz, Initial residual = 0.0534887, Final residual = 0.00274178, No Iterations 5
[INFO] MomentumPredictor: 727.596 [ms]
[INFO] MatrixAssemblyPI: 114.224 [ms]
[INFO] AdjustPhi: 6.275 [ms]
[INFO] ConstrainPressure: 0.003 [ms]
[INFO] MatrixAssemblyPII: 33.951 [ms]
[OGL LOG][Proc: 0]: global_index_init: 0.159 [ms]
[OGL LOG][Proc: 0]p_local_coeffs: call_update: 0 [ms]
[OGL LOG][Proc: 0]p_non_local_coeffs: call_update: 0 [ms]
[OGL LOG][Proc: 0]p: update_local_matrix_data: 21.142 [ms]
[OGL LOG][Proc: 0]p: update_non_local_matrix_data: 0.131 [ms]
[OGL LOG][Proc: 0]p_matrix: call_update: 27.985 [ms]
[OGL LOG][Proc: 0]p_rhs: call_update: 4.411 [ms]
[OGL LOG][Proc: 0]p: init_precond: 0.082 [ms]
[OGL LOG][StoppingCriterion.H:372] Creating stopping criterion with minIter 888 frequency 17
[OGL LOG][Proc: 0]p: generate_solver: 0.002 [ms]
[OGL LOG][Proc: 0]p: solve: 14073.9 [ms]
[OGL LOG][Proc: 0]p: copy_x_back: 1.556 [ms]
[OGL LOG][lduLduBase.H:339] 
Statistics:
	Time per iteration: 9967 [mu s]
	Time per residual norm calculation: 4112.000000 [mu s]
	Time per iteration and DOF: 1.245875 [ns]
	Retrieve results bandwidth 0.642000 [GByte/s]
[OGL LOG][Proc: 0]p: solve_multi_gpu: 14115.9 [ms]
nonecudaGKOCG:  Solving for p, Initial residual = 0.303256, Final residual = 8.67036e-05, No Iterations 1412
[INFO] SolveP: 14156.8 [ms]
time step continuity errors : sum local = 4.08066e-09, global = -7.00669e-21, cumulative = -8.79397e-20
[INFO] ContinuityError: 9.918 [ms]
[INFO] CorrectBoundary: 0.283 [ms]
[INFO] PISOStep: 14363.9 [ms]
[INFO] MatrixAssemblyPI: 111.468 [ms]
[INFO] AdjustPhi: 5.567 [ms]
[INFO] ConstrainPressure: 0.015 [ms]
[INFO] MatrixAssemblyPII: 33.735 [ms]
[OGL LOG][Proc: 0]: global_index_init: 0.253 [ms]
[OGL LOG][Proc: 0]p_local_coeffs: call_update: 0 [ms]
[OGL LOG][Proc: 0]p_non_local_coeffs: call_update: 0 [ms]
[OGL LOG][Proc: 0]p: update_local_matrix_data: 21.253 [ms]
[OGL LOG][Proc: 0]p: update_non_local_matrix_data: 0.12 [ms]
[OGL LOG][Proc: 0]p_matrix: call_update: 30.778 [ms]
[OGL LOG][Proc: 0]p_rhs: call_update: 1.077 [ms]
[OGL LOG][Proc: 0]p: init_precond: 0.085 [ms]
[OGL LOG][StoppingCriterion.H:372] Creating stopping criterion with minIter 847 frequency 16
[OGL LOG][Proc: 0]p: generate_solver: 0.002 [ms]
[OGL LOG][Proc: 0]p: solve: 8465.84 [ms]
[OGL LOG][Proc: 0]p: copy_x_back: 1.347 [ms]
[OGL LOG][lduLduBase.H:339] 
Statistics:
	Time per iteration: 9971 [mu s]
	Time per residual norm calculation: 4259.000000 [mu s]
	Time per iteration and DOF: 1.246375 [ns]
	Retrieve results bandwidth 0.742000 [GByte/s]
[OGL LOG][Proc: 0]p: solve_multi_gpu: 8507.19 [ms]
nonecudaGKOCG:  Solving for p, Initial residual = 0.268074, Final residual = 9.42182e-05, No Iterations 849
[INFO] SolveP: 8546.59 [ms]
time step continuity errors : sum local = 4.65739e-09, global = -5.25624e-21, cumulative = -9.31959e-20
[INFO] ContinuityError: 24.799 [ms]
[INFO] CorrectBoundary: 0.171 [ms]
[INFO] PISOStep: 8752.69 [ms]
[INFO] TimeStep: 23965.4 [ms]
ExecutionTime = 467.36 s  ClockTime = 489 s

Time = 0.00425

Courant Number mean: 0.0570441 max: 0.485416
[INFO] MatrixAssemblyU: 112.32 [ms]
DILUPBiCGStab:  Solving for Ux, Initial residual = 0.00555523, Final residual = 0.000105135, No Iterations 5
DILUPBiCGStab:  Solving for Uy, Initial residual = 0.0133612, Final residual = 0.000243625, No Iterations 5
DILUPBiCGStab:  Solving for Uz, Initial residual = 0.047743, Final residual = 0.00249003, No Iterations 5
[INFO] MomentumPredictor: 726.556 [ms]
[INFO] MatrixAssemblyPI: 114.501 [ms]
[INFO] AdjustPhi: 6.316 [ms]
[INFO] ConstrainPressure: 0.003 [ms]
[INFO] MatrixAssemblyPII: 32.215 [ms]
[OGL LOG][Proc: 0]: global_index_init: 0.014 [ms]
[OGL LOG][Proc: 0]p_local_coeffs: call_update: 0 [ms]
[OGL LOG][Proc: 0]p_non_local_coeffs: call_update: 0 [ms]
[OGL LOG][Proc: 0]p: update_local_matrix_data: 20.628 [ms]
[OGL LOG][Proc: 0]p: update_non_local_matrix_data: 0.25 [ms]
[OGL LOG][Proc: 0]p_matrix: call_update: 24.252 [ms]
[OGL LOG][Proc: 0]p_rhs: call_update: 7.442 [ms]
[OGL LOG][Proc: 0]p: init_precond: 0.084 [ms]
[OGL LOG][StoppingCriterion.H:372] Creating stopping criterion with minIter 509 frequency 13
[OGL LOG][Proc: 0]p: generate_solver: 0.001 [ms]
[OGL LOG][Proc: 0]p: solve: 14988 [ms]
[OGL LOG][Proc: 0]p: copy_x_back: 0.915 [ms]
[OGL LOG][lduLduBase.H:339] 
Statistics:
	Time per iteration: 10106 [mu s]
	Time per residual norm calculation: 4581.000000 [mu s]
	Time per iteration and DOF: 1.263250 [ns]
	Retrieve results bandwidth 1.092000 [GByte/s]
[OGL LOG][Proc: 0]p: solve_multi_gpu: 15027.3 [ms]
nonecudaGKOCG:  Solving for p, Initial residual = 0.272739, Final residual = 8.11561e-05, No Iterations 1483
[INFO] SolveP: 15068.1 [ms]
time step continuity errors : sum local = 3.72525e-09, global = -3.40593e-21, cumulative = -9.66019e-20
[INFO] ContinuityError: 23.823 [ms]
[INFO] CorrectBoundary: 0.281 [ms]
[INFO] PISOStep: 15276.7 [ms]
[INFO] MatrixAssemblyPI: 111.457 [ms]
[INFO] AdjustPhi: 5.11 [ms]
[INFO] ConstrainPressure: 0.01 [ms]
[INFO] MatrixAssemblyPII: 33.751 [ms]
[OGL LOG][Proc: 0]: global_index_init: 0.19 [ms]
[OGL LOG][Proc: 0]p_local_coeffs: call_update: 0 [ms]
[OGL LOG][Proc: 0]p_non_local_coeffs: call_update: 0 [ms]
[OGL LOG][Proc: 0]p: update_local_matrix_data: 20.682 [ms]
[OGL LOG][Proc: 0]p: update_non_local_matrix_data: 0.272 [ms]
[OGL LOG][Proc: 0]p_matrix: call_update: 22.798 [ms]
[OGL LOG][Proc: 0]p_rhs: call_update: 9.562 [ms]
[OGL LOG][Proc: 0]p: init_precond: 0.086 [ms]
[OGL LOG][StoppingCriterion.H:372] Creating stopping criterion with minIter 889 frequency 17
[OGL LOG][Proc: 0]p: generate_solver: 0.002 [ms]
[OGL LOG][Proc: 0]p: solve: 14709.6 [ms]
[OGL LOG][Proc: 0]p: copy_x_back: 0.801 [ms]
[OGL LOG][lduLduBase.H:339] 
Statistics:
	Time per iteration: 9938 [mu s]
	Time per residual norm calculation: 4712.000000 [mu s]
	Time per iteration and DOF: 1.242250 [ns]
	Retrieve results bandwidth 1.248000 [GByte/s]
[OGL LOG][Proc: 0]p: solve_multi_gpu: 14754 [ms]
nonecudaGKOCG:  Solving for p, Initial residual = 0.239779, Final residual = 8.65258e-05, No Iterations 1480
[INFO] SolveP: 14791.8 [ms]
time step continuity errors : sum local = 3.97355e-09, global = -7.7042e-21, cumulative = -1.04306e-19
[INFO] ContinuityError: 9.852 [ms]
[INFO] CorrectBoundary: 0.378 [ms]
[INFO] PISOStep: 14994.7 [ms]
[INFO] TimeStep: 31121 [ms]
ExecutionTime = 498.32 s  ClockTime = 520 s

Time = 0.0045

Courant Number mean: 0.0582159 max: 0.485788
[INFO] MatrixAssemblyU: 106.231 [ms]
DILUPBiCGStab:  Solving for Ux, Initial residual = 0.00516699, Final residual = 9.41465e-05, No Iterations 5
DILUPBiCGStab:  Solving for Uy, Initial residual = 0.0123772, Final residual = 0.000213715, No Iterations 5
DILUPBiCGStab:  Solving for Uz, Initial residual = 0.0425476, Final residual = 0.00218063, No Iterations 5
[INFO] MomentumPredictor: 731.561 [ms]
[INFO] MatrixAssemblyPI: 115.265 [ms]
[INFO] AdjustPhi: 4.785 [ms]
[INFO] ConstrainPressure: 0.003 [ms]
[INFO] MatrixAssemblyPII: 34.051 [ms]
[OGL LOG][Proc: 0]: global_index_init: 0.1 [ms]
[OGL LOG][Proc: 0]p_local_coeffs: call_update: 0 [ms]
[OGL LOG][Proc: 0]p_non_local_coeffs: call_update: 0 [ms]
[OGL LOG][Proc: 0]p: update_local_matrix_data: 21.054 [ms]
[OGL LOG][Proc: 0]p: update_non_local_matrix_data: 0.152 [ms]
[OGL LOG][Proc: 0]p_matrix: call_update: 29.342 [ms]
[OGL LOG][Proc: 0]p_rhs: call_update: 2.489 [ms]
[OGL LOG][Proc: 0]p: init_precond: 0.079 [ms]
[OGL LOG][StoppingCriterion.H:372] Creating stopping criterion with minIter 888 frequency 17
[OGL LOG][Proc: 0]p: generate_solver: 0.002 [ms]
[OGL LOG][Proc: 0]p: solve: 14730.6 [ms]
[OGL LOG][Proc: 0]p: copy_x_back: 1.091 [ms]
[OGL LOG][lduLduBase.H:339] 
Statistics:
	Time per iteration: 9953 [mu s]
	Time per residual norm calculation: 4100.000000 [mu s]
	Time per iteration and DOF: 1.244125 [ns]
	Retrieve results bandwidth 0.916000 [GByte/s]
[OGL LOG][Proc: 0]p: solve_multi_gpu: 14766.9 [ms]
nonecudaGKOCG:  Solving for p, Initial residual = 0.248258, Final residual = 8.68275e-05, No Iterations 1480
[INFO] SolveP: 14813.9 [ms]
time step continuity errors : sum local = 3.83405e-09, global = -5.26845e-21, cumulative = -1.09575e-19
[INFO] ContinuityError: 9.735 [ms]
[INFO] CorrectBoundary: 2.632 [ms]
[INFO] PISOStep: 15021.1 [ms]
[INFO] MatrixAssemblyPI: 108.237 [ms]
[INFO] AdjustPhi: 8.375 [ms]
[INFO] ConstrainPressure: 0.017 [ms]
[INFO] MatrixAssemblyPII: 33.755 [ms]
[OGL LOG][Proc: 0]: global_index_init: 0.226 [ms]
[OGL LOG][Proc: 0]p_local_coeffs: call_update: 0 [ms]
[OGL LOG][Proc: 0]p_non_local_coeffs: call_update: 0 [ms]
[OGL LOG][Proc: 0]p: update_local_matrix_data: 20.873 [ms]
[OGL LOG][Proc: 0]p: update_non_local_matrix_data: 0.233 [ms]
[OGL LOG][Proc: 0]p_matrix: call_update: 22.349 [ms]
[OGL LOG][Proc: 0]p_rhs: call_update: 9.329 [ms]
[OGL LOG][Proc: 0]p: init_precond: 0.079 [ms]
[OGL LOG][StoppingCriterion.H:372] Creating stopping criterion with minIter 888 frequency 17
[OGL LOG][Proc: 0]p: generate_solver: 0.002 [ms]
[OGL LOG][Proc: 0]p: solve: 14703.2 [ms]
[OGL LOG][Proc: 0]p: copy_x_back: 0.486 [ms]
[OGL LOG][lduLduBase.H:339] 
Statistics:
	Time per iteration: 9934 [mu s]
	Time per residual norm calculation: 4875.000000 [mu s]
	Time per iteration and DOF: 1.241750 [ns]
	Retrieve results bandwidth 2.057000 [GByte/s]
[OGL LOG][Proc: 0]p: solve_multi_gpu: 14746.5 [ms]
nonecudaGKOCG:  Solving for p, Initial residual = 0.219055, Final residual = 8.08149e-05, No Iterations 1480
[INFO] SolveP: 14793 [ms]
time step continuity errors : sum local = 3.56015e-09, global = -5.94057e-21, cumulative = -1.15515e-19
[INFO] ContinuityError: 6.517 [ms]
[INFO] CorrectBoundary: 0.913 [ms]
[INFO] PISOStep: 14993.9 [ms]
[INFO] TimeStep: 30863.4 [ms]
ExecutionTime = 529.03 s  ClockTime = 551 s

Time = 0.00475

Courant Number mean: 0.0593262 max: 0.486088
[INFO] MatrixAssemblyU: 111.191 [ms]
DILUPBiCGStab:  Solving for Ux, Initial residual = 0.00481136, Final residual = 8.38731e-05, No Iterations 5
DILUPBiCGStab:  Solving for Uy, Initial residual = 0.0113978, Final residual = 0.000198003, No Iterations 5
DILUPBiCGStab:  Solving for Uz, Initial residual = 0.0376102, Final residual = 0.00190265, No Iterations 5
[INFO] MomentumPredictor: 726.376 [ms]
[INFO] MatrixAssemblyPI: 114.541 [ms]
[INFO] AdjustPhi: 5.51 [ms]
[INFO] ConstrainPressure: 0.003 [ms]
[INFO] MatrixAssemblyPII: 33.522 [ms]
[OGL LOG][Proc: 0]: global_index_init: 0.066 [ms]
[OGL LOG][Proc: 0]p_local_coeffs: call_update: 0 [ms]
[OGL LOG][Proc: 0]p_non_local_coeffs: call_update: 0 [ms]
[OGL LOG][Proc: 0]p: update_local_matrix_data: 20.974 [ms]
[OGL LOG][Proc: 0]p: update_non_local_matrix_data: 0.168 [ms]
[OGL LOG][Proc: 0]p_matrix: call_update: 25.409 [ms]
[OGL LOG][Proc: 0]p_rhs: call_update: 6.784 [ms]
[OGL LOG][Proc: 0]p: init_precond: 0.075 [ms]
[OGL LOG][StoppingCriterion.H:372] Creating stopping criterion with minIter 888 frequency 17
[OGL LOG][Proc: 0]p: generate_solver: 0.003 [ms]
[OGL LOG][Proc: 0]p: solve: 14708.2 [ms]
[OGL LOG][Proc: 0]p: copy_x_back: 0.833 [ms]
[OGL LOG][lduLduBase.H:339] 
Statistics:
	Time per iteration: 9937 [mu s]
	Time per residual norm calculation: 4411.000000 [mu s]
	Time per iteration and DOF: 1.242125 [ns]
	Retrieve results bandwidth 1.200000 [GByte/s]
[OGL LOG][Proc: 0]p: solve_multi_gpu: 14751.4 [ms]
nonecudaGKOCG:  Solving for p, Initial residual = 0.221187, Final residual = 7.24107e-05, No Iterations 1480
[INFO] SolveP: 14789.4 [ms]
time step continuity errors : sum local = 3.15615e-09, global = -3.51694e-21, cumulative = -1.19032e-19
[INFO] ContinuityError: 13.394 [ms]
[INFO] CorrectBoundary: 0.779 [ms]
[INFO] PISOStep: 14997.9 [ms]
[INFO] MatrixAssemblyPI: 109.277 [ms]
[INFO] AdjustPhi: 6.827 [ms]
[INFO] ConstrainPressure: 0.016 [ms]
[INFO] MatrixAssemblyPII: 33.989 [ms]
[OGL LOG][Proc: 0]: global_index_init: 0.193 [ms]
[OGL LOG][Proc: 0]p_local_coeffs: call_update: 0 [ms]
[OGL LOG][Proc: 0]p_non_local_coeffs: call_update: 0 [ms]
[OGL LOG][Proc: 0]p: update_local_matrix_data: 21.111 [ms]
[OGL LOG][Proc: 0]p: update_non_local_matrix_data: 0.132 [ms]
[OGL LOG][Proc: 0]p_matrix: call_update: 26.701 [ms]
[OGL LOG][Proc: 0]p_rhs: call_update: 6.702 [ms]
[OGL LOG][Proc: 0]p: init_precond: 0.081 [ms]
[OGL LOG][StoppingCriterion.H:372] Creating stopping criterion with minIter 888 frequency 17
[OGL LOG][Proc: 0]p: generate_solver: 0.002 [ms]
[OGL LOG][Proc: 0]p: solve: 14699.4 [ms]
[OGL LOG][Proc: 0]p: copy_x_back: 1.053 [ms]
[OGL LOG][lduLduBase.H:339] 
Statistics:
	Time per iteration: 9932 [mu s]
	Time per residual norm calculation: 4115.000000 [mu s]
	Time per iteration and DOF: 1.241500 [ns]
	Retrieve results bandwidth 0.949000 [GByte/s]
[OGL LOG][Proc: 0]p: solve_multi_gpu: 14737.1 [ms]
nonecudaGKOCG:  Solving for p, Initial residual = 0.194372, Final residual = 6.82952e-05, No Iterations 1480
[INFO] SolveP: 14782.3 [ms]
time step continuity errors : sum local = 2.9772e-09, global = -5.32966e-21, cumulative = -1.24362e-19
[INFO] ContinuityError: 13.507 [ms]
[INFO] CorrectBoundary: 0.594 [ms]
[INFO] PISOStep: 14986 [ms]
[INFO] TimeStep: 30832.3 [ms]
ExecutionTime = 559.71 s  ClockTime = 581 s

Time = 0.005

Courant Number mean: 0.0603791 max: 0.486395
[INFO] MatrixAssemblyU: 107.063 [ms]
DILUPBiCGStab:  Solving for Ux, Initial residual = 0.00450535, Final residual = 7.61613e-05, No Iterations 5
DILUPBiCGStab:  Solving for Uy, Initial residual = 0.0106502, Final residual = 0.000176547, No Iterations 5
DILUPBiCGStab:  Solving for Uz, Initial residual = 0.0341205, Final residual = 0.00168333, No Iterations 5
[INFO] MomentumPredictor: 735.36 [ms]
[INFO] MatrixAssemblyPI: 114.826 [ms]
[INFO] AdjustPhi: 5.382 [ms]
[INFO] ConstrainPressure: 0.003 [ms]
[INFO] MatrixAssemblyPII: 33.681 [ms]
[OGL LOG][Proc: 0]: global_index_init: 0.067 [ms]
[OGL LOG][Proc: 0]p_local_coeffs: call_update: 0 [ms]
[OGL LOG][Proc: 0]p_non_local_coeffs: call_update: 0 [ms]
[OGL LOG][Proc: 0]p: update_local_matrix_data: 21.039 [ms]
[OGL LOG][Proc: 0]p: update_non_local_matrix_data: 0.186 [ms]
[OGL LOG][Proc: 0]p_matrix: call_update: 25.307 [ms]
[OGL LOG][Proc: 0]p_rhs: call_update: 6.662 [ms]
[OGL LOG][Proc: 0]p: init_precond: 0.076 [ms]
[OGL LOG][StoppingCriterion.H:372] Creating stopping criterion with minIter 888 frequency 17
[OGL LOG][Proc: 0]p: generate_solver: 0.002 [ms]
[OGL LOG][Proc: 0]p: solve: 14694.3 [ms]
[OGL LOG][Proc: 0]p: copy_x_back: 0.626 [ms]
[OGL LOG][lduLduBase.H:339] 
Statistics:
	Time per iteration: 9928 [mu s]
	Time per residual norm calculation: 4730.000000 [mu s]
	Time per iteration and DOF: 1.241000 [ns]
	Retrieve results bandwidth 1.597000 [GByte/s]
[OGL LOG][Proc: 0]p: solve_multi_gpu: 14733.6 [ms]
nonecudaGKOCG:  Solving for p, Initial residual = 0.201552, Final residual = 6.59337e-05, No Iterations 1480
[INFO] SolveP: 14773.9 [ms]
time step continuity errors : sum local = 2.77209e-09, global = -8.22619e-21, cumulative = -1.32588e-19
[INFO] ContinuityError: 19.901 [ms]
[INFO] CorrectBoundary: 0.325 [ms]
[INFO] PISOStep: 14983 [ms]
[INFO] MatrixAssemblyPI: 111.246 [ms]
[INFO] AdjustPhi: 5.303 [ms]
[INFO] ConstrainPressure: 0.019 [ms]
[INFO] MatrixAssemblyPII: 33.468 [ms]
[OGL LOG][Proc: 0]: global_index_init: 0.121 [ms]
[OGL LOG][Proc: 0]p_local_coeffs: call_update: 0 [ms]
[OGL LOG][Proc: 0]p_non_local_coeffs: call_update: 0 [ms]
[OGL LOG][Proc: 0]p: update_local_matrix_data: 20.766 [ms]
[OGL LOG][Proc: 0]p: update_non_local_matrix_data: 0.214 [ms]
[OGL LOG][Proc: 0]p_matrix: call_update: 20.735 [ms]
[OGL LOG][Proc: 0]p_rhs: call_update: 11.164 [ms]
[OGL LOG][Proc: 0]p: init_precond: 0.075 [ms]
[OGL LOG][StoppingCriterion.H:372] Creating stopping criterion with minIter 888 frequency 17
[OGL LOG][Proc: 0]p: generate_solver: 0.002 [ms]
[OGL LOG][Proc: 0]p: solve: 14741.8 [ms]
[OGL LOG][Proc: 0]p: copy_x_back: 0.611 [ms]
[OGL LOG][lduLduBase.H:339] 
Statistics:
	Time per iteration: 9960 [mu s]
	Time per residual norm calculation: 4854.000000 [mu s]
	Time per iteration and DOF: 1.245000 [ns]
	Retrieve results bandwidth 1.636000 [GByte/s]
[OGL LOG][Proc: 0]p: solve_multi_gpu: 14782.7 [ms]
nonecudaGKOCG:  Solving for p, Initial residual = 0.17768, Final residual = 6.14578e-05, No Iterations 1480
[INFO] SolveP: 14821.4 [ms]
time step continuity errors : sum local = 2.57951e-09, global = -4.02949e-21, cumulative = -1.36617e-19
[INFO] ContinuityError: 24.532 [ms]
[INFO] CorrectBoundary: 0.475 [ms]
[INFO] PISOStep: 15027.5 [ms]
[INFO] TimeStep: 30863.6 [ms]
ExecutionTime = 590.43 s  ClockTime = 612 s

End

Finalising parallel run
