/*---------------------------------------------------------------------------*\
| =========                 |                                                 |
| \\      /  F ield         | OpenFOAM: The Open Source CFD Toolbox           |
|  \\    /   O peration     | Version:  2306                                  |
|   \\  /    A nd           | Website:  www.openfoam.com                      |
|    \\/     M anipulation  |                                                 |
\*---------------------------------------------------------------------------*/
Build  : c423ebec-20231012 OPENFOAM=2306 version=v2306
Arch   : "LSB;label=32;scalar=64"
Exec   : icoFoam -parallel -case /hkfs/work/workspace/scratch/eq4036-l3d/workspace/d73c0826d88e7975d0c3d85d24f1cb20/case
Date   : Dec 30 2023
Time   : 09:30:16
Host   : hkn0710.localdomain
PID    : 4122465
I/O    : uncollated
Case   : /hkfs/work/workspace/scratch/eq4036-l3d/workspace/d73c0826d88e7975d0c3d85d24f1cb20/case
nProcs : 4
Hosts  :
(
    (hkn0710.localdomain 4)
)
Pstream initialized with:
    floatTransfer      : false
    nProcsSimpleSum    : 0
    nonBlockingExchange: 0 (tuning: 0)
    exchange algorithm : -1
    commsType          : nonBlocking
    polling iterations : 0
trapFpe: Floating point exception trapping enabled (FOAM_SIGFPE).
fileModificationChecking : Monitoring run-time modified files using timeStampMaster (fileModificationSkew 5, maxFileModificationPolls 20)
allowSystemOperations : Allowing user-supplied system call operations

// * * * * * * * * * * * * * * * * * * * * * * * * * * * * * * * * * * * * * //
Create time

--> FOAM Warning : 
    From void* Foam::dlLibraryTable::openLibrary(const Foam::fileName&, bool)
    in file db/dynamicLibrary/dlLibraryTable/dlLibraryTable.C at line 188
    Could not load "libpetscFoam.so"
libpetscFoam.so: cannot open shared object file: No such file or directory
Create mesh for time = 0


PISO: Operating solver in PISO mode

Reading transportProperties

Reading field p

Reading field U

Reading/calculating face flux field phi


Starting time loop

Time = 0.000125

Courant Number mean: 8.02505e-18 max: 4.85723e-14
[INFO] MatrixAssemblyU: 3217.6 [ms]
DILUPBiCGStab:  Solving for Ux, Initial residual = 1, Final residual = 0.0205364, No Iterations 5
DILUPBiCGStab:  Solving for Uy:  solution singularity
DILUPBiCGStab:  Solving for Uz:  solution singularity
[INFO] MomentumPredictor: 12306.7 [ms]
[INFO] MatrixAssemblyPI: 3226.89 [ms]
[INFO] AdjustPhi: 183.605 [ms]
[INFO] ConstrainPressure: 0.007 [ms]
[INFO] MatrixAssemblyPII: 998.575 [ms]
[OGL LOG][lduLduBase.H:119] Initialising OGL
	OGL commit:  a2fc0ff+
	Branch: feat/on_device_permute 
	Build type: Release
	Ginkgo version: 1.7.0 ( develop)
	Ginkgo commit: sparse-communicator
	MPI is GPU aware: 1
	Forces host buffer based communication: 0
	CPU ranks per GPU: 1
	Matrix format: Ell
	End OGL_INFO
[OGL LOG][Proc: 0]: global_index_init: 8.767 [ms]
[OGL LOG][Proc: 0]p_local_cols: call_init: 0.048 [ms]
[OGL LOG][Proc: 0]p_local_rows: call_init: 0.009 [ms]
[OGL LOG][Proc: 0]p_local_ldu_map: call_init: 0.014 [ms]
[OGL LOG][Proc: 0]p_local_coeffs: call_init: 5.173 [ms]
[OGL LOG][Proc: 0]p_non_local_cols: call_init: 0.024 [ms]
[OGL LOG][Proc: 0]p_non_local_rows: call_init: 0.002 [ms]
[OGL LOG][Proc: 0]p_non_local_ldu_map: call_init: 0.008 [ms]
[OGL LOG][Proc: 0]p_non_local_coeffs: call_init: 0.003 [ms]
[OGL LOG][Proc: 0]p: init_local_sparsity_pattern: 5304.06 [ms]
[OGL LOG][Proc: 0]p: init_non_local_sparsity_pattern: 12.204 [ms]
[OGL LOG][Proc: 0]p: update_local_matrix_data: 607.289 [ms]
[OGL LOG][Proc: 0]p: update_non_local_matrix_data: 1.255 [ms]
[OGL LOG][Proc: 0]device_partition: call_init: 0.14 [ms]
[OGL LOG][Proc: 0]p_matrix: call_init: 1541.34 [ms]
[OGL LOG][Proc: 0]p_rhs: call_init: 35.264 [ms]
[OGL LOG][Proc: 0]p_solution: call_init: 36.776 [ms]
[OGL LOG][Proc: 0]p: init_precond: 0.1 [ms]
[OGL LOG][StoppingCriterion.H:237] Creating stopping criterion with minIter 0 frequency 1
[OGL LOG][Proc: 0]p: generate_solver: 0.033 [ms]
[OGL LOG][Proc: 0]p: solve: 11385.9 [ms]
[OGL LOG][Proc: 0]p: copy_x_back: 63.438 [ms]
[OGL LOG][lduLduBase.H:330] 
Statistics:
	Time per iteration: 3496 [mu s]
	Time per residual norm calculation: 3485.000000 [mu s]
	Time per iteration and DOF: 0.054625 [ns]
	Retrieve results bandwidth 2.017000 [GByte/s]
[OGL LOG][Proc: 0]p: solve_multi_gpu: 13066.4 [ms]
nonecudaGKOCG:  Solving for p, Initial residual = 1, Final residual = 9.90719e-05, No Iterations 3256
[INFO] SolveP: 19831.2 [ms]
time step continuity errors : sum local = 2.37038e-09, global = -3.42729e-21, cumulative = -3.42729e-21
[INFO] ContinuityError: 350.692 [ms]
[INFO] CorrectBoundary: 2.535 [ms]
[INFO] PISOStep: 25736 [ms]
[INFO] MatrixAssemblyPI: 3083.9 [ms]
[INFO] AdjustPhi: 186.394 [ms]
[INFO] ConstrainPressure: 0.003 [ms]
[INFO] MatrixAssemblyPII: 997.487 [ms]
[OGL LOG][Proc: 0]: global_index_init: 0.013 [ms]
[OGL LOG][Proc: 0]p_local_coeffs: call_update: 0.001 [ms]
[OGL LOG][Proc: 0]p_non_local_coeffs: call_update: 0 [ms]
[OGL LOG][Proc: 0]p: update_local_matrix_data: 577.409 [ms]
[OGL LOG][Proc: 0]p: update_non_local_matrix_data: 1.193 [ms]
[OGL LOG][Proc: 0]p: regenerate_distributed_matrix: 1536.94 [ms]
[OGL LOG][Proc: 0]p_matrix: call_update: 1547.1 [ms]
[OGL LOG][Proc: 0]p_rhs: call_update: 36.206 [ms]
[OGL LOG][Proc: 0]p: init_precond: 0.038 [ms]
[OGL LOG][StoppingCriterion.H:237] Creating stopping criterion with minIter 1953 frequency 36
[OGL LOG][Proc: 0]p: generate_solver: 0.002 [ms]
[OGL LOG][Proc: 0]p: solve: 10741.3 [ms]
[OGL LOG][Proc: 0]p: copy_x_back: 62.995 [ms]
[OGL LOG][lduLduBase.H:330] 
Statistics:
	Time per iteration: 3314 [mu s]
	Time per residual norm calculation: 180.000000 [mu s]
	Time per iteration and DOF: 0.051781 [ns]
	Retrieve results bandwidth 2.031000 [GByte/s]
[OGL LOG][Proc: 0]p: solve_multi_gpu: 12390.7 [ms]
nonecudaGKOCG:  Solving for p, Initial residual = 0.817815, Final residual = 9.67346e-05, No Iterations 3241
[INFO] SolveP: 13082.1 [ms]
time step continuity errors : sum local = 2.80949e-09, global = 3.24126e-22, cumulative = -3.10317e-21
[INFO] ContinuityError: 347.087 [ms]
[INFO] CorrectBoundary: 18.529 [ms]
[INFO] PISOStep: 18814 [ms]
[INFO] TimeStep: 60488.5 [ms]
ExecutionTime = 68.72 s  ClockTime = 69 s

Time = 0.00025

Courant Number mean: 0.0109245 max: 0.437689
[INFO] MatrixAssemblyU: 2837.08 [ms]
DILUPBiCGStab:  Solving for Ux, Initial residual = 0.108102, Final residual = 0.0124051, No Iterations 5
DILUPBiCGStab:  Solving for Uy, Initial residual = 0.48395, Final residual = 0.0484201, No Iterations 5
DILUPBiCGStab:  Solving for Uz, Initial residual = 0.997174, Final residual = 0.111771, No Iterations 5
[INFO] MomentumPredictor: 23449.8 [ms]
[INFO] MatrixAssemblyPI: 3129.89 [ms]
[INFO] AdjustPhi: 186.268 [ms]
[INFO] ConstrainPressure: 0.003 [ms]
[INFO] MatrixAssemblyPII: 994.745 [ms]
[OGL LOG][Proc: 0]: global_index_init: 12.879 [ms]
[OGL LOG][Proc: 0]p_local_coeffs: call_update: 0 [ms]
[OGL LOG][Proc: 0]p_non_local_coeffs: call_update: 0 [ms]
[OGL LOG][Proc: 0]p: update_local_matrix_data: 570.983 [ms]
[OGL LOG][Proc: 0]p: update_non_local_matrix_data: 1.201 [ms]
[OGL LOG][Proc: 0]p: regenerate_distributed_matrix: 1525.64 [ms]
[OGL LOG][Proc: 0]p_matrix: call_update: 1529.59 [ms]
[OGL LOG][Proc: 0]p_rhs: call_update: 35.894 [ms]
[OGL LOG][Proc: 0]p: init_precond: 0.033 [ms]
[OGL LOG][StoppingCriterion.H:237] Creating stopping criterion with minIter 1944 frequency 8
[OGL LOG][Proc: 0]p: generate_solver: 0.002 [ms]
[OGL LOG][Proc: 0]p: solve: 10618.4 [ms]
[OGL LOG][Proc: 0]p: copy_x_back: 62.536 [ms]
[OGL LOG][lduLduBase.H:330] 
Statistics:
	Time per iteration: 3325 [mu s]
	Time per residual norm calculation: 189.000000 [mu s]
	Time per iteration and DOF: 0.051953 [ns]
	Retrieve results bandwidth 2.046000 [GByte/s]
[OGL LOG][Proc: 0]p: solve_multi_gpu: 12249.3 [ms]
nonecudaGKOCG:  Solving for p, Initial residual = 0.901145, Final residual = 9.78116e-05, No Iterations 3193
[INFO] SolveP: 12947.6 [ms]
time step continuity errors : sum local = 6.51346e-09, global = -1.30523e-23, cumulative = -3.11622e-21
[INFO] ContinuityError: 349.193 [ms]
[INFO] CorrectBoundary: 2.555 [ms]
[INFO] PISOStep: 18730.6 [ms]
[INFO] MatrixAssemblyPI: 3033.73 [ms]
[INFO] AdjustPhi: 185.164 [ms]
[INFO] ConstrainPressure: 0.003 [ms]
[INFO] MatrixAssemblyPII: 993.794 [ms]
[OGL LOG][Proc: 0]: global_index_init: 0.014 [ms]
[OGL LOG][Proc: 0]p_local_coeffs: call_update: 0 [ms]
[OGL LOG][Proc: 0]p_non_local_coeffs: call_update: 0 [ms]
[OGL LOG][Proc: 0]p: update_local_matrix_data: 578.77 [ms]
[OGL LOG][Proc: 0]p: update_non_local_matrix_data: 1.188 [ms]
[OGL LOG][Proc: 0]p: regenerate_distributed_matrix: 1529.4 [ms]
[OGL LOG][Proc: 0]p_matrix: call_update: 1533.33 [ms]
[OGL LOG][Proc: 0]p_rhs: call_update: 36.269 [ms]
[OGL LOG][Proc: 0]p: init_precond: 0.027 [ms]
[OGL LOG][StoppingCriterion.H:237] Creating stopping criterion with minIter 1915 frequency 8
[OGL LOG][Proc: 0]p: generate_solver: 0.001 [ms]
[OGL LOG][Proc: 0]p: solve: 10588.1 [ms]
[OGL LOG][Proc: 0]p: copy_x_back: 63.138 [ms]
[OGL LOG][lduLduBase.H:330] 
Statistics:
	Time per iteration: 3324 [mu s]
	Time per residual norm calculation: 177.000000 [mu s]
	Time per iteration and DOF: 0.051937 [ns]
	Retrieve results bandwidth 2.027000 [GByte/s]
[OGL LOG][Proc: 0]p: solve_multi_gpu: 12223.6 [ms]
nonecudaGKOCG:  Solving for p, Initial residual = 0.853903, Final residual = 9.86352e-05, No Iterations 3185
[INFO] SolveP: 12917.5 [ms]
time step continuity errors : sum local = 6.68995e-09, global = 4.30495e-22, cumulative = -2.68573e-21
[INFO] ContinuityError: 346.634 [ms]
[INFO] CorrectBoundary: 18.458 [ms]
[INFO] PISOStep: 18594.6 [ms]
[INFO] TimeStep: 63970.1 [ms]
ExecutionTime = 132.55 s  ClockTime = 133 s

Time = 0.000375

Courant Number mean: 0.0170428 max: 0.511105
[INFO] MatrixAssemblyU: 2844.39 [ms]
DILUPBiCGStab:  Solving for Ux, Initial residual = 0.0536957, Final residual = 0.00516235, No Iterations 5
DILUPBiCGStab:  Solving for Uy, Initial residual = 0.261345, Final residual = 0.0236775, No Iterations 5
DILUPBiCGStab:  Solving for Uz, Initial residual = 0.876363, Final residual = 0.0830121, No Iterations 5
[INFO] MomentumPredictor: 23470.7 [ms]
[INFO] MatrixAssemblyPI: 3128.72 [ms]
[INFO] AdjustPhi: 187.338 [ms]
[INFO] ConstrainPressure: 0.003 [ms]
[INFO] MatrixAssemblyPII: 991.435 [ms]
[OGL LOG][Proc: 0]: global_index_init: 0.014 [ms]
[OGL LOG][Proc: 0]p_local_coeffs: call_update: 0 [ms]
[OGL LOG][Proc: 0]p_non_local_coeffs: call_update: 0 [ms]
[OGL LOG][Proc: 0]p: update_local_matrix_data: 572.072 [ms]
[OGL LOG][Proc: 0]p: update_non_local_matrix_data: 1.191 [ms]
[OGL LOG][Proc: 0]p: regenerate_distributed_matrix: 1529.17 [ms]
[OGL LOG][Proc: 0]p_matrix: call_update: 1533.15 [ms]
[OGL LOG][Proc: 0]p_rhs: call_update: 35.995 [ms]
[OGL LOG][Proc: 0]p: init_precond: 0.028 [ms]
[OGL LOG][StoppingCriterion.H:237] Creating stopping criterion with minIter 1911 frequency 8
[OGL LOG][Proc: 0]p: generate_solver: 0.001 [ms]
[OGL LOG][Proc: 0]p: solve: 6630.16 [ms]
[OGL LOG][Proc: 0]p: copy_x_back: 63.439 [ms]
[OGL LOG][lduLduBase.H:330] 
Statistics:
	Time per iteration: 3465 [mu s]
	Time per residual norm calculation: 203.000000 [mu s]
	Time per iteration and DOF: 0.054141 [ns]
	Retrieve results bandwidth 2.017000 [GByte/s]
[OGL LOG][Proc: 0]p: solve_multi_gpu: 8266.03 [ms]
nonecudaGKOCG:  Solving for p, Initial residual = 0.93854, Final residual = 3.62556e-05, No Iterations 1913
[INFO] SolveP: 8936.13 [ms]
time step continuity errors : sum local = 3.29875e-09, global = 1.77779e-22, cumulative = -2.50795e-21
[INFO] ContinuityError: 334.074 [ms]
[INFO] CorrectBoundary: 2.099 [ms]
[INFO] PISOStep: 14679.5 [ms]
[INFO] MatrixAssemblyPI: 3026.86 [ms]
[INFO] AdjustPhi: 184.68 [ms]
[INFO] ConstrainPressure: 0.002 [ms]
[INFO] MatrixAssemblyPII: 993.359 [ms]
[OGL LOG][Proc: 0]: global_index_init: 0.016 [ms]
[OGL LOG][Proc: 0]p_local_coeffs: call_update: 0 [ms]
[OGL LOG][Proc: 0]p_non_local_coeffs: call_update: 0 [ms]
[OGL LOG][Proc: 0]p: update_local_matrix_data: 578.336 [ms]
[OGL LOG][Proc: 0]p: update_non_local_matrix_data: 0.88 [ms]
[OGL LOG][Proc: 0]p: regenerate_distributed_matrix: 1530.38 [ms]
[OGL LOG][Proc: 0]p_matrix: call_update: 1534.32 [ms]
[OGL LOG][Proc: 0]p_rhs: call_update: 36.246 [ms]
[OGL LOG][Proc: 0]p: init_precond: 0.032 [ms]
[OGL LOG][StoppingCriterion.H:237] Creating stopping criterion with minIter 1147 frequency 6
[OGL LOG][Proc: 0]p: generate_solver: 0.001 [ms]
[OGL LOG][Proc: 0]p: solve: 5498.14 [ms]
[OGL LOG][Proc: 0]p: copy_x_back: 62.997 [ms]
[OGL LOG][lduLduBase.H:330] 
Statistics:
	Time per iteration: 3563 [mu s]
	Time per residual norm calculation: 183.000000 [mu s]
	Time per iteration and DOF: 0.055672 [ns]
	Retrieve results bandwidth 2.031000 [GByte/s]
[OGL LOG][Proc: 0]p: solve_multi_gpu: 7134.78 [ms]
nonecudaGKOCG:  Solving for p, Initial residual = 0.90852, Final residual = 9.35124e-05, No Iterations 1543
[INFO] SolveP: 7827.83 [ms]
time step continuity errors : sum local = 7.96259e-09, global = 8.25468e-23, cumulative = -2.4254e-21
[INFO] ContinuityError: 351.174 [ms]
[INFO] CorrectBoundary: 2.527 [ms]
[INFO] PISOStep: 13505.1 [ms]
[INFO] TimeStep: 54857.7 [ms]
ExecutionTime = 187.3 s  ClockTime = 188 s

Time = 0.0005

Courant Number mean: 0.0206642 max: 0.47762
[INFO] MatrixAssemblyU: 2839.5 [ms]
DILUPBiCGStab:  Solving for Ux, Initial residual = 0.0415522, Final residual = 0.00479307, No Iterations 5
DILUPBiCGStab:  Solving for Uy, Initial residual = 0.213439, Final residual = 0.0223813, No Iterations 5
DILUPBiCGStab:  Solving for Uz, Initial residual = 0.782756, Final residual = 0.0631303, No Iterations 5
[INFO] MomentumPredictor: 23387.9 [ms]
[INFO] MatrixAssemblyPI: 3124.77 [ms]
[INFO] AdjustPhi: 186.961 [ms]
[INFO] ConstrainPressure: 0.003 [ms]
[INFO] MatrixAssemblyPII: 994.133 [ms]
[OGL LOG][Proc: 0]: global_index_init: 0.011 [ms]
[OGL LOG][Proc: 0]p_local_coeffs: call_update: 0 [ms]
[OGL LOG][Proc: 0]p_non_local_coeffs: call_update: 0 [ms]
[OGL LOG][Proc: 0]p: update_local_matrix_data: 571.582 [ms]
[OGL LOG][Proc: 0]p: update_non_local_matrix_data: 1.209 [ms]
[OGL LOG][Proc: 0]p: regenerate_distributed_matrix: 1523.08 [ms]
[OGL LOG][Proc: 0]p_matrix: call_update: 1527 [ms]
[OGL LOG][Proc: 0]p_rhs: call_update: 36.335 [ms]
[OGL LOG][Proc: 0]p: init_precond: 0.027 [ms]
[OGL LOG][StoppingCriterion.H:237] Creating stopping criterion with minIter 925 frequency 5
[OGL LOG][Proc: 0]p: generate_solver: 0.001 [ms]
[OGL LOG][Proc: 0]p: solve: 5482.74 [ms]
[OGL LOG][Proc: 0]p: copy_x_back: 63.145 [ms]
[OGL LOG][lduLduBase.H:330] 
Statistics:
	Time per iteration: 3569 [mu s]
	Time per residual norm calculation: 177.000000 [mu s]
	Time per iteration and DOF: 0.055766 [ns]
	Retrieve results bandwidth 2.027000 [GByte/s]
[OGL LOG][Proc: 0]p: solve_multi_gpu: 7111.9 [ms]
nonecudaGKOCG:  Solving for p, Initial residual = 0.934797, Final residual = 9.03119e-05, No Iterations 1536
[INFO] SolveP: 7780.93 [ms]
time step continuity errors : sum local = 9.82129e-09, global = 8.75777e-22, cumulative = -1.54962e-21
[INFO] ContinuityError: 334.469 [ms]
[INFO] CorrectBoundary: 2.13 [ms]
[INFO] PISOStep: 13523.3 [ms]
[INFO] MatrixAssemblyPI: 3028.12 [ms]
[INFO] AdjustPhi: 186.676 [ms]
[INFO] ConstrainPressure: 0.008 [ms]
[INFO] MatrixAssemblyPII: 993.204 [ms]
[OGL LOG][Proc: 0]: global_index_init: 0.014 [ms]
[OGL LOG][Proc: 0]p_local_coeffs: call_update: 0 [ms]
[OGL LOG][Proc: 0]p_non_local_coeffs: call_update: 0 [ms]
[OGL LOG][Proc: 0]p: update_local_matrix_data: 577.304 [ms]
[OGL LOG][Proc: 0]p: update_non_local_matrix_data: 1.272 [ms]
[OGL LOG][Proc: 0]p: regenerate_distributed_matrix: 1533.21 [ms]
[OGL LOG][Proc: 0]p_matrix: call_update: 1537.19 [ms]
[OGL LOG][Proc: 0]p_rhs: call_update: 36.187 [ms]
[OGL LOG][Proc: 0]p: init_precond: 0.031 [ms]
[OGL LOG][StoppingCriterion.H:237] Creating stopping criterion with minIter 921 frequency 5
[OGL LOG][Proc: 0]p: generate_solver: 0.002 [ms]
[OGL LOG][Proc: 0]p: solve: 5425.62 [ms]
[OGL LOG][Proc: 0]p: copy_x_back: 62.631 [ms]
[OGL LOG][lduLduBase.H:330] 
Statistics:
	Time per iteration: 3578 [mu s]
	Time per residual norm calculation: 181.000000 [mu s]
	Time per iteration and DOF: 0.055906 [ns]
	Retrieve results bandwidth 2.043000 [GByte/s]
[OGL LOG][Proc: 0]p: solve_multi_gpu: 7064.81 [ms]
nonecudaGKOCG:  Solving for p, Initial residual = 0.87843, Final residual = 9.74332e-05, No Iterations 1516
[INFO] SolveP: 7759.07 [ms]
time step continuity errors : sum local = 1.04479e-08, global = -3.74364e-23, cumulative = -1.58706e-21
[INFO] ContinuityError: 349.273 [ms]
[INFO] CorrectBoundary: 2.511 [ms]
[INFO] PISOStep: 13436.7 [ms]
[INFO] TimeStep: 53546.2 [ms]
ExecutionTime = 240.72 s  ClockTime = 242 s

Time = 0.000625

Courant Number mean: 0.0237602 max: 0.55494
[INFO] MatrixAssemblyU: 2841.21 [ms]
DILUPBiCGStab:  Solving for Ux, Initial residual = 0.0375565, Final residual = 0.00433763, No Iterations 5
DILUPBiCGStab:  Solving for Uy, Initial residual = 0.183825, Final residual = 0.0189439, No Iterations 5
DILUPBiCGStab:  Solving for Uz, Initial residual = 0.752891, Final residual = 0.0543719, No Iterations 5
[INFO] MomentumPredictor: 30731.2 [ms]
[INFO] MatrixAssemblyPI: 3136.78 [ms]
[INFO] AdjustPhi: 186.647 [ms]
[INFO] ConstrainPressure: 0.003 [ms]
[INFO] MatrixAssemblyPII: 992.735 [ms]
[OGL LOG][Proc: 0]: global_index_init: 0.015 [ms]
[OGL LOG][Proc: 0]p_local_coeffs: call_update: 0 [ms]
[OGL LOG][Proc: 0]p_non_local_coeffs: call_update: 0 [ms]
[OGL LOG][Proc: 0]p: update_local_matrix_data: 572.047 [ms]
[OGL LOG][Proc: 0]p: update_non_local_matrix_data: 1.185 [ms]
[OGL LOG][Proc: 0]p: regenerate_distributed_matrix: 1527.58 [ms]
[OGL LOG][Proc: 0]p_matrix: call_update: 1531.54 [ms]
[OGL LOG][Proc: 0]p_rhs: call_update: 37.767 [ms]
[OGL LOG][Proc: 0]p: init_precond: 0.03 [ms]
[OGL LOG][StoppingCriterion.H:237] Creating stopping criterion with minIter 909 frequency 5
[OGL LOG][Proc: 0]p: generate_solver: 0.002 [ms]
[OGL LOG][Proc: 0]p: solve: 10416.3 [ms]
[OGL LOG][Proc: 0]p: copy_x_back: 62.63 [ms]
[OGL LOG][lduLduBase.H:330] 
Statistics:
	Time per iteration: 3348 [mu s]
	Time per residual norm calculation: 190.000000 [mu s]
	Time per iteration and DOF: 0.052312 [ns]
	Retrieve results bandwidth 2.043000 [GByte/s]
[OGL LOG][Proc: 0]p: solve_multi_gpu: 12051.6 [ms]
nonecudaGKOCG:  Solving for p, Initial residual = 0.952401, Final residual = 9.9833e-05, No Iterations 3111
[INFO] SolveP: 12738 [ms]
time step continuity errors : sum local = 1.20001e-08, global = -2.52665e-22, cumulative = -1.83972e-21
[INFO] ContinuityError: 349.994 [ms]
[INFO] CorrectBoundary: 2.548 [ms]
[INFO] PISOStep: 18525.3 [ms]
[INFO] MatrixAssemblyPI: 3033.87 [ms]
[INFO] AdjustPhi: 185.127 [ms]
[INFO] ConstrainPressure: 0.003 [ms]
[INFO] MatrixAssemblyPII: 992.885 [ms]
[OGL LOG][Proc: 0]: global_index_init: 0.012 [ms]
[OGL LOG][Proc: 0]p_local_coeffs: call_update: 0 [ms]
[OGL LOG][Proc: 0]p_non_local_coeffs: call_update: 0 [ms]
[OGL LOG][Proc: 0]p: update_local_matrix_data: 578.913 [ms]
[OGL LOG][Proc: 0]p: update_non_local_matrix_data: 1.166 [ms]
[OGL LOG][Proc: 0]p: regenerate_distributed_matrix: 1527.62 [ms]
[OGL LOG][Proc: 0]p_matrix: call_update: 1531.59 [ms]
[OGL LOG][Proc: 0]p_rhs: call_update: 36.102 [ms]
[OGL LOG][Proc: 0]p: init_precond: 0.026 [ms]
[OGL LOG][StoppingCriterion.H:237] Creating stopping criterion with minIter 1866 frequency 8
[OGL LOG][Proc: 0]p: generate_solver: 0.002 [ms]
[OGL LOG][Proc: 0]p: solve: 10313.2 [ms]
[OGL LOG][Proc: 0]p: copy_x_back: 62.453 [ms]
[OGL LOG][lduLduBase.H:330] 
Statistics:
	Time per iteration: 3330 [mu s]
	Time per residual norm calculation: 182.000000 [mu s]
	Time per iteration and DOF: 0.052031 [ns]
	Retrieve results bandwidth 2.049000 [GByte/s]
[OGL LOG][Proc: 0]p: solve_multi_gpu: 11945.6 [ms]
nonecudaGKOCG:  Solving for p, Initial residual = 0.915193, Final residual = 9.66674e-05, No Iterations 3097
[INFO] SolveP: 12622.5 [ms]
time step continuity errors : sum local = 1.15484e-08, global = -1.3991e-22, cumulative = -1.97963e-21
[INFO] ContinuityError: 334.252 [ms]
[INFO] CorrectBoundary: 2.08 [ms]
[INFO] PISOStep: 18264.5 [ms]
[INFO] TimeStep: 70721.1 [ms]
ExecutionTime = 311.29 s  ClockTime = 312 s

Time = 0.00075

Courant Number mean: 0.0261089 max: 0.483317
[INFO] MatrixAssemblyU: 2849.55 [ms]
DILUPBiCGStab:  Solving for Ux, Initial residual = 0.0353082, Final residual = 0.00405715, No Iterations 5
DILUPBiCGStab:  Solving for Uy, Initial residual = 0.170662, Final residual = 0.0158749, No Iterations 5
DILUPBiCGStab:  Solving for Uz, Initial residual = 0.693313, Final residual = 0.044832, No Iterations 5
[INFO] MomentumPredictor: 23493.5 [ms]
[INFO] MatrixAssemblyPI: 3123.45 [ms]
[INFO] AdjustPhi: 186.751 [ms]
[INFO] ConstrainPressure: 0.004 [ms]
[INFO] MatrixAssemblyPII: 989.463 [ms]
[OGL LOG][Proc: 0]: global_index_init: 0.015 [ms]
[OGL LOG][Proc: 0]p_local_coeffs: call_update: 0 [ms]
[OGL LOG][Proc: 0]p_non_local_coeffs: call_update: 0 [ms]
[OGL LOG][Proc: 0]p: update_local_matrix_data: 572.86 [ms]
[OGL LOG][Proc: 0]p: update_non_local_matrix_data: 1.176 [ms]
[OGL LOG][Proc: 0]p: regenerate_distributed_matrix: 1531 [ms]
[OGL LOG][Proc: 0]p_matrix: call_update: 1558.8 [ms]
[OGL LOG][Proc: 0]p_rhs: call_update: 34.484 [ms]
[OGL LOG][Proc: 0]p: init_precond: 0.027 [ms]
[OGL LOG][StoppingCriterion.H:237] Creating stopping criterion with minIter 1858 frequency 8
[OGL LOG][Proc: 0]p: generate_solver: 0.002 [ms]
[OGL LOG][Proc: 0]p: solve: 10374.5 [ms]
[OGL LOG][Proc: 0]p: copy_x_back: 62.555 [ms]
[OGL LOG][lduLduBase.H:330] 
Statistics:
	Time per iteration: 3341 [mu s]
	Time per residual norm calculation: 186.000000 [mu s]
	Time per iteration and DOF: 0.052203 [ns]
	Retrieve results bandwidth 2.046000 [GByte/s]
[OGL LOG][Proc: 0]p: solve_multi_gpu: 12033.1 [ms]
nonecudaGKOCG:  Solving for p, Initial residual = 0.949268, Final residual = 9.97542e-05, No Iterations 3105
[INFO] SolveP: 12704.5 [ms]
time step continuity errors : sum local = 1.38576e-08, global = 1.04544e-22, cumulative = -1.87509e-21
[INFO] ContinuityError: 333.933 [ms]
[INFO] CorrectBoundary: 2.106 [ms]
[INFO] PISOStep: 18434.9 [ms]
[INFO] MatrixAssemblyPI: 3033.32 [ms]
[INFO] AdjustPhi: 185.038 [ms]
[INFO] ConstrainPressure: 0.004 [ms]
[INFO] MatrixAssemblyPII: 994.232 [ms]
[OGL LOG][Proc: 0]: global_index_init: 0.01 [ms]
[OGL LOG][Proc: 0]p_local_coeffs: call_update: 0 [ms]
[OGL LOG][Proc: 0]p_non_local_coeffs: call_update: 0 [ms]
[OGL LOG][Proc: 0]p: update_local_matrix_data: 576.186 [ms]
[OGL LOG][Proc: 0]p: update_non_local_matrix_data: 0.866 [ms]
[OGL LOG][Proc: 0]p: regenerate_distributed_matrix: 1528.11 [ms]
[OGL LOG][Proc: 0]p_matrix: call_update: 1532.04 [ms]
[OGL LOG][Proc: 0]p_rhs: call_update: 36.225 [ms]
[OGL LOG][Proc: 0]p: init_precond: 0.026 [ms]
[OGL LOG][StoppingCriterion.H:237] Creating stopping criterion with minIter 1863 frequency 8
[OGL LOG][Proc: 0]p: generate_solver: 0.002 [ms]
[OGL LOG][Proc: 0]p: solve: 10326.4 [ms]
[OGL LOG][Proc: 0]p: copy_x_back: 62.57 [ms]
[OGL LOG][lduLduBase.H:330] 
Statistics:
	Time per iteration: 3334 [mu s]
	Time per residual norm calculation: 183.000000 [mu s]
	Time per iteration and DOF: 0.052094 [ns]
	Retrieve results bandwidth 2.045000 [GByte/s]
[OGL LOG][Proc: 0]p: solve_multi_gpu: 11959.4 [ms]
nonecudaGKOCG:  Solving for p, Initial residual = 0.890216, Final residual = 9.91326e-05, No Iterations 3097
[INFO] SolveP: 12649.4 [ms]
time step continuity errors : sum local = 1.39938e-08, global = 8.30683e-22, cumulative = -1.04441e-21
[INFO] ContinuityError: 356.071 [ms]
[INFO] CorrectBoundary: 2.552 [ms]
[INFO] PISOStep: 18343.6 [ms]
[INFO] TimeStep: 63480.5 [ms]
ExecutionTime = 374.57 s  ClockTime = 376 s

Time = 0.000875

Courant Number mean: 0.0283331 max: 0.610886
[INFO] MatrixAssemblyU: 2835.81 [ms]
DILUPBiCGStab:  Solving for Ux, Initial residual = 0.0349746, Final residual = 0.00383615, No Iterations 5
DILUPBiCGStab:  Solving for Uy, Initial residual = 0.175459, Final residual = 0.0151679, No Iterations 5
DILUPBiCGStab:  Solving for Uz, Initial residual = 0.690645, Final residual = 0.0403386, No Iterations 5
[INFO] MomentumPredictor: 23367.5 [ms]
[INFO] MatrixAssemblyPI: 3123.59 [ms]
[INFO] AdjustPhi: 187.701 [ms]
[INFO] ConstrainPressure: 0.003 [ms]
[INFO] MatrixAssemblyPII: 992.306 [ms]
[OGL LOG][Proc: 0]: global_index_init: 0.016 [ms]
[OGL LOG][Proc: 0]p_local_coeffs: call_update: 0 [ms]
[OGL LOG][Proc: 0]p_non_local_coeffs: call_update: 0 [ms]
[OGL LOG][Proc: 0]p: update_local_matrix_data: 570.699 [ms]
[OGL LOG][Proc: 0]p: update_non_local_matrix_data: 1.183 [ms]
[OGL LOG][Proc: 0]p: regenerate_distributed_matrix: 1524.83 [ms]
[OGL LOG][Proc: 0]p_matrix: call_update: 1528.77 [ms]
[OGL LOG][Proc: 0]p_rhs: call_update: 36.138 [ms]
[OGL LOG][Proc: 0]p: init_precond: 0.027 [ms]
[OGL LOG][StoppingCriterion.H:237] Creating stopping criterion with minIter 1858 frequency 8
[OGL LOG][Proc: 0]p: generate_solver: 0.002 [ms]
[OGL LOG][Proc: 0]p: solve: 10291.3 [ms]
[OGL LOG][Proc: 0]p: copy_x_back: 63.268 [ms]
[OGL LOG][lduLduBase.H:330] 
Statistics:
	Time per iteration: 3331 [mu s]
	Time per residual norm calculation: 187.000000 [mu s]
	Time per iteration and DOF: 0.052047 [ns]
	Retrieve results bandwidth 2.023000 [GByte/s]
[OGL LOG][Proc: 0]p: solve_multi_gpu: 11922.7 [ms]
nonecudaGKOCG:  Solving for p, Initial residual = 0.960679, Final residual = 9.52737e-05, No Iterations 3089
[INFO] SolveP: 12591 [ms]
time step continuity errors : sum local = 1.50144e-08, global = 1.90074e-22, cumulative = -8.54333e-22
[INFO] ContinuityError: 334.469 [ms]
[INFO] CorrectBoundary: 2.084 [ms]
[INFO] PISOStep: 18329.4 [ms]
[INFO] MatrixAssemblyPI: 3050.06 [ms]
[INFO] AdjustPhi: 184.771 [ms]
[INFO] ConstrainPressure: 0.003 [ms]
[INFO] MatrixAssemblyPII: 1037.46 [ms]
[OGL LOG][Proc: 0]: global_index_init: 0.014 [ms]
[OGL LOG][Proc: 0]p_local_coeffs: call_update: 0 [ms]
[OGL LOG][Proc: 0]p_non_local_coeffs: call_update: 0 [ms]
[OGL LOG][Proc: 0]p: update_local_matrix_data: 582.011 [ms]
[OGL LOG][Proc: 0]p: update_non_local_matrix_data: 1.177 [ms]
[OGL LOG][Proc: 0]p: regenerate_distributed_matrix: 1528.77 [ms]
[OGL LOG][Proc: 0]p_matrix: call_update: 1532.71 [ms]
[OGL LOG][Proc: 0]p_rhs: call_update: 36.183 [ms]
[OGL LOG][Proc: 0]p: init_precond: 0.026 [ms]
[OGL LOG][StoppingCriterion.H:237] Creating stopping criterion with minIter 1853 frequency 8
[OGL LOG][Proc: 0]p: generate_solver: 0.001 [ms]
[OGL LOG][Proc: 0]p: solve: 10293 [ms]
[OGL LOG][Proc: 0]p: copy_x_back: 62.173 [ms]
[OGL LOG][lduLduBase.H:330] 
Statistics:
	Time per iteration: 3332 [mu s]
	Time per residual norm calculation: 184.000000 [mu s]
	Time per iteration and DOF: 0.052062 [ns]
	Retrieve results bandwidth 2.058000 [GByte/s]
[OGL LOG][Proc: 0]p: solve_multi_gpu: 11926.3 [ms]
nonecudaGKOCG:  Solving for p, Initial residual = 0.917547, Final residual = 9.1878e-05, No Iterations 3089
[INFO] SolveP: 12606.2 [ms]
time step continuity errors : sum local = 1.4425e-08, global = -5.2621e-22, cumulative = -1.38054e-21
[INFO] ContinuityError: 334.008 [ms]
[INFO] CorrectBoundary: 2.629 [ms]
[INFO] PISOStep: 18313 [ms]
[INFO] TimeStep: 63206 [ms]
ExecutionTime = 437.65 s  ClockTime = 439 s

Time = 0.001

Courant Number mean: 0.0300977 max: 0.490932
[INFO] MatrixAssemblyU: 2841.41 [ms]
DILUPBiCGStab:  Solving for Ux, Initial residual = 0.036127, Final residual = 0.00369919, No Iterations 5
DILUPBiCGStab:  Solving for Uy, Initial residual = 0.169172, Final residual = 0.0130617, No Iterations 5
DILUPBiCGStab:  Solving for Uz, Initial residual = 0.677674, Final residual = 0.0375618, No Iterations 5
[INFO] MomentumPredictor: 23396.8 [ms]
[INFO] MatrixAssemblyPI: 3125.51 [ms]
[INFO] AdjustPhi: 186.792 [ms]
[INFO] ConstrainPressure: 0.002 [ms]
[INFO] MatrixAssemblyPII: 990.873 [ms]
[OGL LOG][Proc: 0]: global_index_init: 0.014 [ms]
[OGL LOG][Proc: 0]p_local_coeffs: call_update: 0 [ms]
[OGL LOG][Proc: 0]p_non_local_coeffs: call_update: 0 [ms]
[OGL LOG][Proc: 0]p: update_local_matrix_data: 572.944 [ms]
[OGL LOG][Proc: 0]p: update_non_local_matrix_data: 0.865 [ms]
[OGL LOG][Proc: 0]p: regenerate_distributed_matrix: 1526.17 [ms]
[OGL LOG][Proc: 0]p_matrix: call_update: 1530.12 [ms]
[OGL LOG][Proc: 0]p_rhs: call_update: 35.725 [ms]
[OGL LOG][Proc: 0]p: init_precond: 0.03 [ms]
[OGL LOG][StoppingCriterion.H:237] Creating stopping criterion with minIter 1853 frequency 8
[OGL LOG][Proc: 0]p: generate_solver: 0.002 [ms]
[OGL LOG][Proc: 0]p: solve: 10265.8 [ms]
[OGL LOG][Proc: 0]p: copy_x_back: 62.347 [ms]
[OGL LOG][lduLduBase.H:330] 
Statistics:
	Time per iteration: 3331 [mu s]
	Time per residual norm calculation: 185.000000 [mu s]
	Time per iteration and DOF: 0.052047 [ns]
	Retrieve results bandwidth 2.053000 [GByte/s]
[OGL LOG][Proc: 0]p: solve_multi_gpu: 11896.8 [ms]
nonecudaGKOCG:  Solving for p, Initial residual = 0.958515, Final residual = 9.73126e-05, No Iterations 3081
[INFO] SolveP: 12585.1 [ms]
time step continuity errors : sum local = 1.76723e-08, global = -4.1351e-22, cumulative = -1.79405e-21
[INFO] ContinuityError: 348.659 [ms]
[INFO] CorrectBoundary: 2.563 [ms]
[INFO] PISOStep: 18381.9 [ms]
[INFO] MatrixAssemblyPI: 3032.57 [ms]
[INFO] AdjustPhi: 184.911 [ms]
[INFO] ConstrainPressure: 0.004 [ms]
[INFO] MatrixAssemblyPII: 991.123 [ms]
[OGL LOG][Proc: 0]: global_index_init: 0.014 [ms]
[OGL LOG][Proc: 0]p_local_coeffs: call_update: 0 [ms]
[OGL LOG][Proc: 0]p_non_local_coeffs: call_update: 0 [ms]
[OGL LOG][Proc: 0]p: update_local_matrix_data: 577.911 [ms]
[OGL LOG][Proc: 0]p: update_non_local_matrix_data: 1.179 [ms]
[OGL LOG][Proc: 0]p: regenerate_distributed_matrix: 1528.68 [ms]
[OGL LOG][Proc: 0]p_matrix: call_update: 1532.62 [ms]
[OGL LOG][Proc: 0]p_rhs: call_update: 36.262 [ms]
[OGL LOG][Proc: 0]p: init_precond: 0.025 [ms]
[OGL LOG][StoppingCriterion.H:237] Creating stopping criterion with minIter 1848 frequency 8
[OGL LOG][Proc: 0]p: generate_solver: 0.001 [ms]
[OGL LOG][Proc: 0]p: solve: 10243.6 [ms]
[OGL LOG][Proc: 0]p: copy_x_back: 62.762 [ms]
[OGL LOG][lduLduBase.H:330] 
Statistics:
	Time per iteration: 3333 [mu s]
	Time per residual norm calculation: 180.000000 [mu s]
	Time per iteration and DOF: 0.052078 [ns]
	Retrieve results bandwidth 2.039000 [GByte/s]
[OGL LOG][Proc: 0]p: solve_multi_gpu: 11877.8 [ms]
nonecudaGKOCG:  Solving for p, Initial residual = 0.897403, Final residual = 9.97977e-05, No Iterations 3073
[INFO] SolveP: 12553.6 [ms]
time step continuity errors : sum local = 1.83971e-08, global = 6.27967e-22, cumulative = -1.16608e-21
[INFO] ContinuityError: 333.747 [ms]
[INFO] CorrectBoundary: 2.042 [ms]
[INFO] PISOStep: 18192.1 [ms]
[INFO] TimeStep: 63171.9 [ms]
ExecutionTime = 500.69 s  ClockTime = 502 s

Time = 0.001125

Courant Number mean: 0.0319279 max: 0.6946
[INFO] MatrixAssemblyU: 2831.35 [ms]
DILUPBiCGStab:  Solving for Ux, Initial residual = 0.0373765, Final residual = 0.00350129, No Iterations 5
DILUPBiCGStab:  Solving for Uy, Initial residual = 0.186154, Final residual = 0.0135539, No Iterations 5
DILUPBiCGStab:  Solving for Uz, Initial residual = 0.689969, Final residual = 0.0359801, No Iterations 5
[INFO] MomentumPredictor: 23471.7 [ms]
[INFO] MatrixAssemblyPI: 3131.7 [ms]
[INFO] AdjustPhi: 187.012 [ms]
[INFO] ConstrainPressure: 0.003 [ms]
[INFO] MatrixAssemblyPII: 991.48 [ms]
[OGL LOG][Proc: 0]: global_index_init: 0.015 [ms]
[OGL LOG][Proc: 0]p_local_coeffs: call_update: 0 [ms]
[OGL LOG][Proc: 0]p_non_local_coeffs: call_update: 0 [ms]
[OGL LOG][Proc: 0]p: update_local_matrix_data: 572.532 [ms]
[OGL LOG][Proc: 0]p: update_non_local_matrix_data: 1.217 [ms]
[OGL LOG][Proc: 0]p: regenerate_distributed_matrix: 1525.03 [ms]
[OGL LOG][Proc: 0]p_matrix: call_update: 1528.98 [ms]
[OGL LOG][Proc: 0]p_rhs: call_update: 36.205 [ms]
[OGL LOG][Proc: 0]p: init_precond: 0.028 [ms]
[OGL LOG][StoppingCriterion.H:237] Creating stopping criterion with minIter 1843 frequency 8
[OGL LOG][Proc: 0]p: generate_solver: 0.001 [ms]
[OGL LOG][Proc: 0]p: solve: 10321.1 [ms]
[OGL LOG][Proc: 0]p: copy_x_back: 63.066 [ms]
[OGL LOG][lduLduBase.H:330] 
Statistics:
	Time per iteration: 3341 [mu s]
	Time per residual norm calculation: 186.000000 [mu s]
	Time per iteration and DOF: 0.052203 [ns]
	Retrieve results bandwidth 2.029000 [GByte/s]
[OGL LOG][Proc: 0]p: solve_multi_gpu: 11952.3 [ms]
nonecudaGKOCG:  Solving for p, Initial residual = 0.966806, Final residual = 9.04887e-05, No Iterations 3089
[INFO] SolveP: 12623.4 [ms]
time step continuity errors : sum local = 1.89026e-08, global = 1.32472e-22, cumulative = -1.03361e-21
[INFO] ContinuityError: 333.911 [ms]
[INFO] CorrectBoundary: 2.076 [ms]
[INFO] PISOStep: 18366.6 [ms]
[INFO] MatrixAssemblyPI: 3030.03 [ms]
[INFO] AdjustPhi: 185.308 [ms]
[INFO] ConstrainPressure: 0.002 [ms]
[INFO] MatrixAssemblyPII: 994.298 [ms]
[OGL LOG][Proc: 0]: global_index_init: 0.011 [ms]
[OGL LOG][Proc: 0]p_local_coeffs: call_update: 0 [ms]
[OGL LOG][Proc: 0]p_non_local_coeffs: call_update: 0 [ms]
[OGL LOG][Proc: 0]p: update_local_matrix_data: 577.248 [ms]
[OGL LOG][Proc: 0]p: update_non_local_matrix_data: 0.864 [ms]
[OGL LOG][Proc: 0]p: regenerate_distributed_matrix: 1526.02 [ms]
[OGL LOG][Proc: 0]p_matrix: call_update: 1529.97 [ms]
[OGL LOG][Proc: 0]p_rhs: call_update: 36.305 [ms]
[OGL LOG][Proc: 0]p: init_precond: 0.031 [ms]
[OGL LOG][StoppingCriterion.H:237] Creating stopping criterion with minIter 1853 frequency 8
[OGL LOG][Proc: 0]p: generate_solver: 0.002 [ms]
[OGL LOG][Proc: 0]p: solve: 10269.8 [ms]
[OGL LOG][Proc: 0]p: copy_x_back: 62.844 [ms]
[OGL LOG][lduLduBase.H:330] 
Statistics:
	Time per iteration: 3333 [mu s]
	Time per residual norm calculation: 178.000000 [mu s]
	Time per iteration and DOF: 0.052078 [ns]
	Retrieve results bandwidth 2.036000 [GByte/s]
[OGL LOG][Proc: 0]p: solve_multi_gpu: 11901.7 [ms]
nonecudaGKOCG:  Solving for p, Initial residual = 0.91872, Final residual = 9.72184e-05, No Iterations 3081
[INFO] SolveP: 12590.9 [ms]
time step continuity errors : sum local = 2.02807e-08, global = 7.57937e-22, cumulative = -2.75676e-22
[INFO] ContinuityError: 357.778 [ms]
[INFO] CorrectBoundary: 2.658 [ms]
[INFO] PISOStep: 18303.1 [ms]
[INFO] TimeStep: 63331.6 [ms]
ExecutionTime = 563.87 s  ClockTime = 566 s

Time = 0.00125

Courant Number mean: 0.0333551 max: 0.50697
[INFO] MatrixAssemblyU: 2837.29 [ms]
DILUPBiCGStab:  Solving for Ux, Initial residual = 0.0408367, Final residual = 0.00356799, No Iterations 5
DILUPBiCGStab:  Solving for Uy, Initial residual = 0.185118, Final residual = 0.0119597, No Iterations 5
DILUPBiCGStab:  Solving for Uz, Initial residual = 0.690475, Final residual = 0.0345906, No Iterations 5
[INFO] MomentumPredictor: 23372.7 [ms]
[INFO] MatrixAssemblyPI: 3123.03 [ms]
[INFO] AdjustPhi: 186.866 [ms]
[INFO] ConstrainPressure: 0.003 [ms]
[INFO] MatrixAssemblyPII: 994.097 [ms]
[OGL LOG][Proc: 0]: global_index_init: 0.013 [ms]
[OGL LOG][Proc: 0]p_local_coeffs: call_update: 0 [ms]
[OGL LOG][Proc: 0]p_non_local_coeffs: call_update: 0 [ms]
[OGL LOG][Proc: 0]p: update_local_matrix_data: 572.272 [ms]
[OGL LOG][Proc: 0]p: update_non_local_matrix_data: 1.225 [ms]
[OGL LOG][Proc: 0]p: regenerate_distributed_matrix: 1524.26 [ms]
[OGL LOG][Proc: 0]p_matrix: call_update: 1528.23 [ms]
[OGL LOG][Proc: 0]p_rhs: call_update: 35.904 [ms]
[OGL LOG][Proc: 0]p: init_precond: 0.027 [ms]
[OGL LOG][StoppingCriterion.H:237] Creating stopping criterion with minIter 1848 frequency 8
[OGL LOG][Proc: 0]p: generate_solver: 0.002 [ms]
[OGL LOG][Proc: 0]p: solve: 10268.9 [ms]
[OGL LOG][Proc: 0]p: copy_x_back: 62.713 [ms]
[OGL LOG][lduLduBase.H:330] 
Statistics:
	Time per iteration: 3332 [mu s]
	Time per residual norm calculation: 182.000000 [mu s]
	Time per iteration and DOF: 0.052062 [ns]
	Retrieve results bandwidth 2.041000 [GByte/s]
[OGL LOG][Proc: 0]p: solve_multi_gpu: 11898 [ms]
nonecudaGKOCG:  Solving for p, Initial residual = 0.966226, Final residual = 9.90546e-05, No Iterations 3081
[INFO] SolveP: 12583 [ms]
time step continuity errors : sum local = 2.41798e-08, global = -6.54894e-22, cumulative = -9.30571e-22
[INFO] ContinuityError: 348.185 [ms]
[INFO] CorrectBoundary: 20.446 [ms]
[INFO] PISOStep: 18354.1 [ms]
[INFO] MatrixAssemblyPI: 3048.9 [ms]
[INFO] AdjustPhi: 184.715 [ms]
[INFO] ConstrainPressure: 0.002 [ms]
[INFO] MatrixAssemblyPII: 1037.93 [ms]
[OGL LOG][Proc: 0]: global_index_init: 0.014 [ms]
[OGL LOG][Proc: 0]p_local_coeffs: call_update: 0 [ms]
[OGL LOG][Proc: 0]p_non_local_coeffs: call_update: 0 [ms]
[OGL LOG][Proc: 0]p: update_local_matrix_data: 577.415 [ms]
[OGL LOG][Proc: 0]p: update_non_local_matrix_data: 1.178 [ms]
[OGL LOG][Proc: 0]p: regenerate_distributed_matrix: 1544.77 [ms]
[OGL LOG][Proc: 0]p_matrix: call_update: 1548.73 [ms]
[OGL LOG][Proc: 0]p_rhs: call_update: 36.267 [ms]
[OGL LOG][Proc: 0]p: init_precond: 0.03 [ms]
[OGL LOG][StoppingCriterion.H:237] Creating stopping criterion with minIter 1848 frequency 8
[OGL LOG][Proc: 0]p: generate_solver: 0.001 [ms]
[OGL LOG][Proc: 0]p: solve: 10270.1 [ms]
[OGL LOG][Proc: 0]p: copy_x_back: 62.466 [ms]
[OGL LOG][lduLduBase.H:330] 
Statistics:
	Time per iteration: 3333 [mu s]
	Time per residual norm calculation: 184.000000 [mu s]
	Time per iteration and DOF: 0.052078 [ns]
	Retrieve results bandwidth 2.049000 [GByte/s]
[OGL LOG][Proc: 0]p: solve_multi_gpu: 11919.8 [ms]
nonecudaGKOCG:  Solving for p, Initial residual = 0.903421, Final residual = 9.68381e-05, No Iterations 3081
[INFO] SolveP: 12595.7 [ms]
time step continuity errors : sum local = 2.39615e-08, global = 4.32609e-22, cumulative = -4.97962e-22
[INFO] ContinuityError: 361.652 [ms]
[INFO] CorrectBoundary: 2.64 [ms]
[INFO] PISOStep: 18325.3 [ms]
[INFO] TimeStep: 63262.7 [ms]
ExecutionTime = 626.99 s  ClockTime = 629 s

Time = 0.001375

Courant Number mean: 0.0349782 max: 0.825797
[INFO] MatrixAssemblyU: 2837.36 [ms]
DILUPBiCGStab:  Solving for Ux, Initial residual = 0.0436145, Final residual = 0.00342094, No Iterations 5
DILUPBiCGStab:  Solving for Uy, Initial residual = 0.209169, Final residual = 0.0129874, No Iterations 5
DILUPBiCGStab:  Solving for Uz, Initial residual = 0.705464, Final residual = 0.0341203, No Iterations 5
[INFO] MomentumPredictor: 23417.1 [ms]
[INFO] MatrixAssemblyPI: 3130.73 [ms]
[INFO] AdjustPhi: 186.574 [ms]
[INFO] ConstrainPressure: 0.003 [ms]
[INFO] MatrixAssemblyPII: 994.37 [ms]
[OGL LOG][Proc: 0]: global_index_init: 0.014 [ms]
[OGL LOG][Proc: 0]p_local_coeffs: call_update: 0 [ms]
[OGL LOG][Proc: 0]p_non_local_coeffs: call_update: 0 [ms]
[OGL LOG][Proc: 0]p: update_local_matrix_data: 574.232 [ms]
[OGL LOG][Proc: 0]p: update_non_local_matrix_data: 1.277 [ms]
[OGL LOG][Proc: 0]p: regenerate_distributed_matrix: 1525.99 [ms]
[OGL LOG][Proc: 0]p_matrix: call_update: 1529.96 [ms]
[OGL LOG][Proc: 0]p_rhs: call_update: 36.006 [ms]
[OGL LOG][Proc: 0]p: init_precond: 0.03 [ms]
[OGL LOG][StoppingCriterion.H:237] Creating stopping criterion with minIter 1848 frequency 8
[OGL LOG][Proc: 0]p: generate_solver: 0.001 [ms]
[OGL LOG][Proc: 0]p: solve: 10265.5 [ms]
[OGL LOG][Proc: 0]p: copy_x_back: 63.294 [ms]
[OGL LOG][lduLduBase.H:330] 
Statistics:
	Time per iteration: 3331 [mu s]
	Time per residual norm calculation: 185.000000 [mu s]
	Time per iteration and DOF: 0.052047 [ns]
	Retrieve results bandwidth 2.022000 [GByte/s]
[OGL LOG][Proc: 0]p: solve_multi_gpu: 11898.3 [ms]
nonecudaGKOCG:  Solving for p, Initial residual = 0.972003, Final residual = 9.2456e-05, No Iterations 3081
[INFO] SolveP: 12587 [ms]
time step continuity errors : sum local = 2.62985e-08, global = 3.33845e-23, cumulative = -4.64577e-22
[INFO] ContinuityError: 348.474 [ms]
[INFO] CorrectBoundary: 2.491 [ms]
[INFO] PISOStep: 18369.8 [ms]
[INFO] MatrixAssemblyPI: 3035.7 [ms]
[INFO] AdjustPhi: 184.501 [ms]
[INFO] ConstrainPressure: 0.002 [ms]
[INFO] MatrixAssemblyPII: 994.224 [ms]
[OGL LOG][Proc: 0]: global_index_init: 0.011 [ms]
[OGL LOG][Proc: 0]p_local_coeffs: call_update: 0 [ms]
[OGL LOG][Proc: 0]p_non_local_coeffs: call_update: 0 [ms]
[OGL LOG][Proc: 0]p: update_local_matrix_data: 578.026 [ms]
[OGL LOG][Proc: 0]p: update_non_local_matrix_data: 1.189 [ms]
[OGL LOG][Proc: 0]p: regenerate_distributed_matrix: 1529.99 [ms]
[OGL LOG][Proc: 0]p_matrix: call_update: 1533.95 [ms]
[OGL LOG][Proc: 0]p_rhs: call_update: 36.29 [ms]
[OGL LOG][Proc: 0]p: init_precond: 0.025 [ms]
[OGL LOG][StoppingCriterion.H:237] Creating stopping criterion with minIter 1848 frequency 8
[OGL LOG][Proc: 0]p: generate_solver: 0.002 [ms]
[OGL LOG][Proc: 0]p: solve: 10240.8 [ms]
[OGL LOG][Proc: 0]p: copy_x_back: 62.367 [ms]
[OGL LOG][lduLduBase.H:330] 
Statistics:
	Time per iteration: 3332 [mu s]
	Time per residual norm calculation: 176.000000 [mu s]
	Time per iteration and DOF: 0.052062 [ns]
	Retrieve results bandwidth 2.052000 [GByte/s]
[OGL LOG][Proc: 0]p: solve_multi_gpu: 11876.1 [ms]
nonecudaGKOCG:  Solving for p, Initial residual = 0.919795, Final residual = 9.53073e-05, No Iterations 3073
[INFO] SolveP: 12552.1 [ms]
time step continuity errors : sum local = 2.71282e-08, global = 6.8687e-22, cumulative = 2.22293e-22
[INFO] ContinuityError: 334.186 [ms]
[INFO] CorrectBoundary: 2.062 [ms]
[INFO] PISOStep: 18198.9 [ms]
[INFO] TimeStep: 63191.8 [ms]
ExecutionTime = 690.04 s  ClockTime = 692 s

Time = 0.0015

Courant Number mean: 0.0361865 max: 0.599995
[INFO] MatrixAssemblyU: 2839.57 [ms]
DILUPBiCGStab:  Solving for Ux, Initial residual = 0.0492177, Final residual = 0.00362375, No Iterations 5
DILUPBiCGStab:  Solving for Uy, Initial residual = 0.213786, Final residual = 0.0119318, No Iterations 5
DILUPBiCGStab:  Solving for Uz, Initial residual = 0.709926, Final residual = 0.0336897, No Iterations 5
[INFO] MomentumPredictor: 23491.3 [ms]
[INFO] MatrixAssemblyPI: 3126.51 [ms]
[INFO] AdjustPhi: 186.58 [ms]
[INFO] ConstrainPressure: 0.004 [ms]
[INFO] MatrixAssemblyPII: 991.632 [ms]
[OGL LOG][Proc: 0]: global_index_init: 0.013 [ms]
[OGL LOG][Proc: 0]p_local_coeffs: call_update: 0 [ms]
[OGL LOG][Proc: 0]p_non_local_coeffs: call_update: 0 [ms]
[OGL LOG][Proc: 0]p: update_local_matrix_data: 573.243 [ms]
[OGL LOG][Proc: 0]p: update_non_local_matrix_data: 1.18 [ms]
[OGL LOG][Proc: 0]p: regenerate_distributed_matrix: 1527.29 [ms]
[OGL LOG][Proc: 0]p_matrix: call_update: 1531.26 [ms]
[OGL LOG][Proc: 0]p_rhs: call_update: 35.849 [ms]
[OGL LOG][Proc: 0]p: init_precond: 0.035 [ms]
[OGL LOG][StoppingCriterion.H:237] Creating stopping criterion with minIter 1843 frequency 8
[OGL LOG][Proc: 0]p: generate_solver: 0.001 [ms]
[OGL LOG][Proc: 0]p: solve: 9903.59 [ms]
[OGL LOG][Proc: 0]p: copy_x_back: 62.129 [ms]
[OGL LOG][lduLduBase.H:330] 
Statistics:
	Time per iteration: 3344 [mu s]
	Time per residual norm calculation: 182.000000 [mu s]
	Time per iteration and DOF: 0.052250 [ns]
	Retrieve results bandwidth 2.060000 [GByte/s]
[OGL LOG][Proc: 0]p: solve_multi_gpu: 11535.1 [ms]
nonecudaGKOCG:  Solving for p, Initial residual = 0.9723, Final residual = 9.0971e-05, No Iterations 2961
[INFO] SolveP: 12207.2 [ms]
time step continuity errors : sum local = 3.04368e-08, global = 9.07349e-22, cumulative = 1.12964e-21
[INFO] ContinuityError: 335.606 [ms]
[INFO] CorrectBoundary: 2.071 [ms]
[INFO] PISOStep: 17951.4 [ms]
[INFO] MatrixAssemblyPI: 3028.18 [ms]
[INFO] AdjustPhi: 185.153 [ms]
[INFO] ConstrainPressure: 0.003 [ms]
[INFO] MatrixAssemblyPII: 993.839 [ms]
[OGL LOG][Proc: 0]: global_index_init: 0.012 [ms]
[OGL LOG][Proc: 0]p_local_coeffs: call_update: 0 [ms]
[OGL LOG][Proc: 0]p_non_local_coeffs: call_update: 0 [ms]
[OGL LOG][Proc: 0]p: update_local_matrix_data: 577.327 [ms]
[OGL LOG][Proc: 0]p: update_non_local_matrix_data: 0.887 [ms]
[OGL LOG][Proc: 0]p: regenerate_distributed_matrix: 1527.49 [ms]
[OGL LOG][Proc: 0]p_matrix: call_update: 1531.46 [ms]
[OGL LOG][Proc: 0]p_rhs: call_update: 35.964 [ms]
[OGL LOG][Proc: 0]p: init_precond: 0.026 [ms]
[OGL LOG][StoppingCriterion.H:237] Creating stopping criterion with minIter 1776 frequency 8
[OGL LOG][Proc: 0]p: generate_solver: 0.002 [ms]
[OGL LOG][Proc: 0]p: solve: 10022 [ms]
[OGL LOG][Proc: 0]p: copy_x_back: 63.028 [ms]
[OGL LOG][lduLduBase.H:330] 
Statistics:
	Time per iteration: 3339 [mu s]
	Time per residual norm calculation: 177.000000 [mu s]
	Time per iteration and DOF: 0.052172 [ns]
	Retrieve results bandwidth 2.030000 [GByte/s]
[OGL LOG][Proc: 0]p: solve_multi_gpu: 11655.3 [ms]
nonecudaGKOCG:  Solving for p, Initial residual = 0.908741, Final residual = 9.7572e-05, No Iterations 3001
[INFO] SolveP: 12344.5 [ms]
time step continuity errors : sum local = 3.30493e-08, global = 3.26736e-22, cumulative = 1.45638e-21
[INFO] ContinuityError: 369.738 [ms]
[INFO] CorrectBoundary: 2.54 [ms]
[INFO] PISOStep: 18045.2 [ms]
[INFO] TimeStep: 62688.9 [ms]
ExecutionTime = 752.6 s  ClockTime = 755 s

Time = 0.001625

Courant Number mean: 0.0377057 max: 1.14584
[INFO] MatrixAssemblyU: 2835.86 [ms]
DILUPBiCGStab:  Solving for Ux, Initial residual = 0.0539412, Final residual = 0.00358279, No Iterations 5
DILUPBiCGStab:  Solving for Uy, Initial residual = 0.242697, Final residual = 0.0131856, No Iterations 5
DILUPBiCGStab:  Solving for Uz, Initial residual = 0.722361, Final residual = 0.0334176, No Iterations 5
[INFO] MomentumPredictor: 23376.3 [ms]
[INFO] MatrixAssemblyPI: 3122.86 [ms]
[INFO] AdjustPhi: 187.31 [ms]
[INFO] ConstrainPressure: 0.003 [ms]
[INFO] MatrixAssemblyPII: 993.006 [ms]
[OGL LOG][Proc: 0]: global_index_init: 3.609 [ms]
[OGL LOG][Proc: 0]p_local_coeffs: call_update: 0 [ms]
[OGL LOG][Proc: 0]p_non_local_coeffs: call_update: 0 [ms]
[OGL LOG][Proc: 0]p: update_local_matrix_data: 571.618 [ms]
[OGL LOG][Proc: 0]p: update_non_local_matrix_data: 1.222 [ms]
[OGL LOG][Proc: 0]p: regenerate_distributed_matrix: 1526.3 [ms]
[OGL LOG][Proc: 0]p_matrix: call_update: 1530.22 [ms]
[OGL LOG][Proc: 0]p_rhs: call_update: 36.226 [ms]
[OGL LOG][Proc: 0]p: init_precond: 0.026 [ms]
[OGL LOG][StoppingCriterion.H:237] Creating stopping criterion with minIter 1800 frequency 8
[OGL LOG][Proc: 0]p: generate_solver: 0.002 [ms]
[OGL LOG][Proc: 0]p: solve: 10267.7 [ms]
[OGL LOG][Proc: 0]p: copy_x_back: 62.171 [ms]
[OGL LOG][lduLduBase.H:330] 
Statistics:
	Time per iteration: 3332 [mu s]
	Time per residual norm calculation: 184.000000 [mu s]
	Time per iteration and DOF: 0.052062 [ns]
	Retrieve results bandwidth 2.058000 [GByte/s]
[OGL LOG][Proc: 0]p: solve_multi_gpu: 11898.4 [ms]
nonecudaGKOCG:  Solving for p, Initial residual = 0.976029, Final residual = 9.13128e-05, No Iterations 3081
[INFO] SolveP: 12587.2 [ms]
time step continuity errors : sum local = 3.5907e-08, global = -2.18738e-22, cumulative = 1.23764e-21
[INFO] ContinuityError: 348.551 [ms]
[INFO] CorrectBoundary: 19.95 [ms]
[INFO] PISOStep: 18358.6 [ms]
[INFO] MatrixAssemblyPI: 3025.7 [ms]
[INFO] AdjustPhi: 187.152 [ms]
[INFO] ConstrainPressure: 0.003 [ms]
[INFO] MatrixAssemblyPII: 1042.54 [ms]
[OGL LOG][Proc: 0]: global_index_init: 0.016 [ms]
[OGL LOG][Proc: 0]p_local_coeffs: call_update: 0 [ms]
[OGL LOG][Proc: 0]p_non_local_coeffs: call_update: 0 [ms]
[OGL LOG][Proc: 0]p: update_local_matrix_data: 578.784 [ms]
[OGL LOG][Proc: 0]p: update_non_local_matrix_data: 1.522 [ms]
[OGL LOG][Proc: 0]p: regenerate_distributed_matrix: 1530.1 [ms]
[OGL LOG][Proc: 0]p_matrix: call_update: 1534.09 [ms]
[OGL LOG][Proc: 0]p_rhs: call_update: 36.12 [ms]
[OGL LOG][Proc: 0]p: init_precond: 0.027 [ms]
[OGL LOG][StoppingCriterion.H:237] Creating stopping criterion with minIter 1848 frequency 8
[OGL LOG][Proc: 0]p: generate_solver: 0.002 [ms]
[OGL LOG][Proc: 0]p: solve: 10240.6 [ms]
[OGL LOG][Proc: 0]p: copy_x_back: 62.298 [ms]
[OGL LOG][lduLduBase.H:330] 
Statistics:
	Time per iteration: 3332 [mu s]
	Time per residual norm calculation: 182.000000 [mu s]
	Time per iteration and DOF: 0.052062 [ns]
	Retrieve results bandwidth 2.054000 [GByte/s]
[OGL LOG][Proc: 0]p: solve_multi_gpu: 11875.3 [ms]
nonecudaGKOCG:  Solving for p, Initial residual = 0.920609, Final residual = 9.73175e-05, No Iterations 3073
[INFO] SolveP: 12564.9 [ms]
time step continuity errors : sum local = 3.83646e-08, global = 8.21158e-22, cumulative = 2.0588e-21
[INFO] ContinuityError: 349.141 [ms]
[INFO] CorrectBoundary: 19.233 [ms]
[INFO] PISOStep: 18283.3 [ms]
[INFO] TimeStep: 63213.7 [ms]
ExecutionTime = 815.68 s  ClockTime = 818 s

Time = 0.00175

Courant Number mean: 0.0387736 max: 1.02365
[INFO] MatrixAssemblyU: 2842.84 [ms]
DILUPBiCGStab:  Solving for Ux, Initial residual = 0.0621431, Final residual = 0.0038756, No Iterations 5
DILUPBiCGStab:  Solving for Uy, Initial residual = 0.25349, Final residual = 0.0126464, No Iterations 5
DILUPBiCGStab:  Solving for Uz, Initial residual = 0.727773, Final residual = 0.0332451, No Iterations 5
[INFO] MomentumPredictor: 23407.5 [ms]
[INFO] MatrixAssemblyPI: 3122.72 [ms]
[INFO] AdjustPhi: 186.691 [ms]
[INFO] ConstrainPressure: 0.003 [ms]
[INFO] MatrixAssemblyPII: 994.58 [ms]
[OGL LOG][Proc: 0]: global_index_init: 0.015 [ms]
[OGL LOG][Proc: 0]p_local_coeffs: call_update: 0 [ms]
[OGL LOG][Proc: 0]p_non_local_coeffs: call_update: 0 [ms]
[OGL LOG][Proc: 0]p: update_local_matrix_data: 572.683 [ms]
[OGL LOG][Proc: 0]p: update_non_local_matrix_data: 1.003 [ms]
[OGL LOG][Proc: 0]p: regenerate_distributed_matrix: 1527.93 [ms]
[OGL LOG][Proc: 0]p_matrix: call_update: 1531.86 [ms]
[OGL LOG][Proc: 0]p_rhs: call_update: 36.287 [ms]
[OGL LOG][Proc: 0]p: init_precond: 0.029 [ms]
[OGL LOG][StoppingCriterion.H:237] Creating stopping criterion with minIter 1843 frequency 8
[OGL LOG][Proc: 0]p: generate_solver: 0.001 [ms]
[OGL LOG][Proc: 0]p: solve: 10263.9 [ms]
[OGL LOG][Proc: 0]p: copy_x_back: 63.095 [ms]
[OGL LOG][lduLduBase.H:330] 
Statistics:
	Time per iteration: 3331 [mu s]
	Time per residual norm calculation: 183.000000 [mu s]
	Time per iteration and DOF: 0.052047 [ns]
	Retrieve results bandwidth 2.028000 [GByte/s]
[OGL LOG][Proc: 0]p: solve_multi_gpu: 11898.3 [ms]
nonecudaGKOCG:  Solving for p, Initial residual = 0.976726, Final residual = 9.53342e-05, No Iterations 3081
[INFO] SolveP: 12584.4 [ms]
time step continuity errors : sum local = 4.43512e-08, global = -3.25702e-22, cumulative = 1.7331e-21
[INFO] ContinuityError: 349.004 [ms]
[INFO] CorrectBoundary: 2.557 [ms]
[INFO] PISOStep: 18362 [ms]
[INFO] MatrixAssemblyPI: 3033.53 [ms]
[INFO] AdjustPhi: 185.218 [ms]
[INFO] ConstrainPressure: 0.003 [ms]
[INFO] MatrixAssemblyPII: 992.67 [ms]
[OGL LOG][Proc: 0]: global_index_init: 0.012 [ms]
[OGL LOG][Proc: 0]p_local_coeffs: call_update: 0 [ms]
[OGL LOG][Proc: 0]p_non_local_coeffs: call_update: 0 [ms]
[OGL LOG][Proc: 0]p: update_local_matrix_data: 579.053 [ms]
[OGL LOG][Proc: 0]p: update_non_local_matrix_data: 1.168 [ms]
[OGL LOG][Proc: 0]p: regenerate_distributed_matrix: 1529.13 [ms]
[OGL LOG][Proc: 0]p_matrix: call_update: 1533.09 [ms]
[OGL LOG][Proc: 0]p_rhs: call_update: 36.067 [ms]
[OGL LOG][Proc: 0]p: init_precond: 0.026 [ms]
[OGL LOG][StoppingCriterion.H:237] Creating stopping criterion with minIter 1848 frequency 8
[OGL LOG][Proc: 0]p: generate_solver: 0.002 [ms]
[OGL LOG][Proc: 0]p: solve: 10272.7 [ms]
[OGL LOG][Proc: 0]p: copy_x_back: 62.199 [ms]
[OGL LOG][lduLduBase.H:330] 
Statistics:
	Time per iteration: 3334 [mu s]
	Time per residual norm calculation: 180.000000 [mu s]
	Time per iteration and DOF: 0.052094 [ns]
	Retrieve results bandwidth 2.057000 [GByte/s]
[OGL LOG][Proc: 0]p: solve_multi_gpu: 11906.8 [ms]
nonecudaGKOCG:  Solving for p, Initial residual = 0.912891, Final residual = 9.07226e-05, No Iterations 3081
[INFO] SolveP: 12583.5 [ms]
time step continuity errors : sum local = 4.26798e-08, global = 1.59664e-21, cumulative = 3.32974e-21
[INFO] ContinuityError: 360.356 [ms]
[INFO] CorrectBoundary: 3.538 [ms]
[INFO] PISOStep: 18253.4 [ms]
[INFO] TimeStep: 63225.1 [ms]
ExecutionTime = 878.78 s  ClockTime = 881 s

Time = 0.001875

Courant Number mean: 0.0402652 max: 1.68843
[INFO] MatrixAssemblyU: 2836.86 [ms]
DILUPBiCGStab:  Solving for Ux, Initial residual = 0.0692727, Final residual = 0.00397897, No Iterations 5
DILUPBiCGStab:  Solving for Uy, Initial residual = 0.286234, Final residual = 0.013995, No Iterations 5
DILUPBiCGStab:  Solving for Uz, Initial residual = 0.737279, Final residual = 0.0331974, No Iterations 5
[INFO] MomentumPredictor: 23463.4 [ms]
[INFO] MatrixAssemblyPI: 3137.03 [ms]
[INFO] AdjustPhi: 186.654 [ms]
[INFO] ConstrainPressure: 0.003 [ms]
[INFO] MatrixAssemblyPII: 991.826 [ms]
[OGL LOG][Proc: 0]: global_index_init: 0.014 [ms]
[OGL LOG][Proc: 0]p_local_coeffs: call_update: 0 [ms]
[OGL LOG][Proc: 0]p_non_local_coeffs: call_update: 0 [ms]
[OGL LOG][Proc: 0]p: update_local_matrix_data: 572.666 [ms]
[OGL LOG][Proc: 0]p: update_non_local_matrix_data: 1.168 [ms]
[OGL LOG][Proc: 0]p: regenerate_distributed_matrix: 1522.73 [ms]
[OGL LOG][Proc: 0]p_matrix: call_update: 1526.69 [ms]
[OGL LOG][Proc: 0]p_rhs: call_update: 36.35 [ms]
[OGL LOG][Proc: 0]p: init_precond: 0.027 [ms]
[OGL LOG][StoppingCriterion.H:237] Creating stopping criterion with minIter 1848 frequency 8
[OGL LOG][Proc: 0]p: generate_solver: 0.002 [ms]
[OGL LOG][Proc: 0]p: solve: 9890.94 [ms]
[OGL LOG][Proc: 0]p: copy_x_back: 62.702 [ms]
[OGL LOG][lduLduBase.H:330] 
Statistics:
	Time per iteration: 3340 [mu s]
	Time per residual norm calculation: 184.000000 [mu s]
	Time per iteration and DOF: 0.052187 [ns]
	Retrieve results bandwidth 2.041000 [GByte/s]
[OGL LOG][Proc: 0]p: solve_multi_gpu: 11519.7 [ms]
nonecudaGKOCG:  Solving for p, Initial residual = 0.978928, Final residual = 9.15798e-05, No Iterations 2961
[INFO] SolveP: 12190.2 [ms]
time step continuity errors : sum local = 5.04237e-08, global = -5.53616e-22, cumulative = 2.77612e-21
[INFO] ContinuityError: 334.085 [ms]
[INFO] CorrectBoundary: 2.139 [ms]
[INFO] PISOStep: 17939.4 [ms]
[INFO] MatrixAssemblyPI: 3043.26 [ms]
[INFO] AdjustPhi: 185.077 [ms]
[INFO] ConstrainPressure: 0.003 [ms]
[INFO] MatrixAssemblyPII: 995.43 [ms]
[OGL LOG][Proc: 0]: global_index_init: 0.011 [ms]
[OGL LOG][Proc: 0]p_local_coeffs: call_update: 0 [ms]
[OGL LOG][Proc: 0]p_non_local_coeffs: call_update: 0 [ms]
[OGL LOG][Proc: 0]p: update_local_matrix_data: 578.102 [ms]
[OGL LOG][Proc: 0]p: update_non_local_matrix_data: 0.861 [ms]
[OGL LOG][Proc: 0]p: regenerate_distributed_matrix: 1527.29 [ms]
[OGL LOG][Proc: 0]p_matrix: call_update: 1531.24 [ms]
[OGL LOG][Proc: 0]p_rhs: call_update: 36.339 [ms]
[OGL LOG][Proc: 0]p: init_precond: 0.025 [ms]
[OGL LOG][StoppingCriterion.H:237] Creating stopping criterion with minIter 1776 frequency 8
[OGL LOG][Proc: 0]p: generate_solver: 0.001 [ms]
[OGL LOG][Proc: 0]p: solve: 9891.71 [ms]
[OGL LOG][Proc: 0]p: copy_x_back: 62.822 [ms]
[OGL LOG][lduLduBase.H:330] 
Statistics:
	Time per iteration: 3340 [mu s]
	Time per residual norm calculation: 175.000000 [mu s]
	Time per iteration and DOF: 0.052187 [ns]
	Retrieve results bandwidth 2.037000 [GByte/s]
[OGL LOG][Proc: 0]p: solve_multi_gpu: 11525 [ms]
nonecudaGKOCG:  Solving for p, Initial residual = 0.921125, Final residual = 9.6484e-05, No Iterations 2961
[INFO] SolveP: 12199.9 [ms]
time step continuity errors : sum local = 5.33398e-08, global = 2.52975e-22, cumulative = 3.02909e-21
[INFO] ContinuityError: 367.228 [ms]
[INFO] CorrectBoundary: 2.533 [ms]
[INFO] PISOStep: 17935.7 [ms]
[INFO] TimeStep: 62552.1 [ms]
ExecutionTime = 941.19 s  ClockTime = 944 s

Time = 0.002

Courant Number mean: 0.041266 max: 1.73231
[INFO] MatrixAssemblyU: 2851.12 [ms]
DILUPBiCGStab:  Solving for Ux, Initial residual = 0.0810826, Final residual = 0.00438896, No Iterations 5
DILUPBiCGStab:  Solving for Uy, Initial residual = 0.3035, Final residual = 0.0138996, No Iterations 5
DILUPBiCGStab:  Solving for Uz, Initial residual = 0.740727, Final residual = 0.0327742, No Iterations 5
[INFO] MomentumPredictor: 23378.3 [ms]
[INFO] MatrixAssemblyPI: 3116.74 [ms]
[INFO] AdjustPhi: 186.487 [ms]
[INFO] ConstrainPressure: 0.003 [ms]
[INFO] MatrixAssemblyPII: 990.936 [ms]
[OGL LOG][Proc: 0]: global_index_init: 0.015 [ms]
[OGL LOG][Proc: 0]p_local_coeffs: call_update: 0 [ms]
[OGL LOG][Proc: 0]p_non_local_coeffs: call_update: 0 [ms]
[OGL LOG][Proc: 0]p: update_local_matrix_data: 574.017 [ms]
[OGL LOG][Proc: 0]p: update_non_local_matrix_data: 1.19 [ms]
[OGL LOG][Proc: 0]p: regenerate_distributed_matrix: 1530.28 [ms]
[OGL LOG][Proc: 0]p_matrix: call_update: 1534.21 [ms]
[OGL LOG][Proc: 0]p_rhs: call_update: 36.189 [ms]
[OGL LOG][Proc: 0]p: init_precond: 0.026 [ms]
[OGL LOG][StoppingCriterion.H:237] Creating stopping criterion with minIter 1776 frequency 7
[OGL LOG][Proc: 0]p: generate_solver: 0.001 [ms]
[OGL LOG][Proc: 0]p: solve: 10269.1 [ms]
[OGL LOG][Proc: 0]p: copy_x_back: 62.512 [ms]
[OGL LOG][lduLduBase.H:330] 
Statistics:
	Time per iteration: 3333 [mu s]
	Time per residual norm calculation: 190.000000 [mu s]
	Time per iteration and DOF: 0.052078 [ns]
	Retrieve results bandwidth 2.047000 [GByte/s]
[OGL LOG][Proc: 0]p: solve_multi_gpu: 11904.1 [ms]
nonecudaGKOCG:  Solving for p, Initial residual = 0.980113, Final residual = 9.73463e-05, No Iterations 3081
[INFO] SolveP: 12590.3 [ms]
time step continuity errors : sum local = 6.36612e-08, global = 6.93953e-22, cumulative = 3.72305e-21
[INFO] ContinuityError: 349.275 [ms]
[INFO] CorrectBoundary: 19.13 [ms]
[INFO] PISOStep: 18349.7 [ms]
[INFO] MatrixAssemblyPI: 3032.61 [ms]
[INFO] AdjustPhi: 185.413 [ms]
[INFO] ConstrainPressure: 0.003 [ms]
[INFO] MatrixAssemblyPII: 1048.59 [ms]
[OGL LOG][Proc: 0]: global_index_init: 0.014 [ms]
[OGL LOG][Proc: 0]p_local_coeffs: call_update: 0 [ms]
[OGL LOG][Proc: 0]p_non_local_coeffs: call_update: 0 [ms]
[OGL LOG][Proc: 0]p: update_local_matrix_data: 577.143 [ms]
[OGL LOG][Proc: 0]p: update_non_local_matrix_data: 1.384 [ms]
[OGL LOG][Proc: 0]p: regenerate_distributed_matrix: 1531.45 [ms]
[OGL LOG][Proc: 0]p_matrix: call_update: 1535.42 [ms]
[OGL LOG][Proc: 0]p_rhs: call_update: 35.981 [ms]
[OGL LOG][Proc: 0]p: init_precond: 0.025 [ms]
[OGL LOG][StoppingCriterion.H:237] Creating stopping criterion with minIter 1848 frequency 8
[OGL LOG][Proc: 0]p: generate_solver: 0.001 [ms]
[OGL LOG][Proc: 0]p: solve: 10269.2 [ms]
[OGL LOG][Proc: 0]p: copy_x_back: 62.787 [ms]
[OGL LOG][lduLduBase.H:330] 
Statistics:
	Time per iteration: 3333 [mu s]
	Time per residual norm calculation: 189.000000 [mu s]
	Time per iteration and DOF: 0.052078 [ns]
	Retrieve results bandwidth 2.038000 [GByte/s]
[OGL LOG][Proc: 0]p: solve_multi_gpu: 11908.4 [ms]
nonecudaGKOCG:  Solving for p, Initial residual = 0.916026, Final residual = 9.44247e-05, No Iterations 3081
[INFO] SolveP: 12584 [ms]
time step continuity errors : sum local = 6.23911e-08, global = 3.43332e-22, cumulative = 4.06638e-21
[INFO] ContinuityError: 333.817 [ms]
[INFO] CorrectBoundary: 2.553 [ms]
[INFO] PISOStep: 18284.3 [ms]
[INFO] TimeStep: 63222.5 [ms]
ExecutionTime = 1004.28 s  ClockTime = 1007 s

Time = 0.002125

Courant Number mean: 0.0428011 max: 2.57501
[INFO] MatrixAssemblyU: 2840.19 [ms]
DILUPBiCGStab:  Solving for Ux, Initial residual = 0.0913183, Final residual = 0.00466069, No Iterations 5
DILUPBiCGStab:  Solving for Uy, Initial residual = 0.339219, Final residual = 0.0153018, No Iterations 5
DILUPBiCGStab:  Solving for Uz, Initial residual = 0.746908, Final residual = 0.0328027, No Iterations 5
[INFO] MomentumPredictor: 23390 [ms]
[INFO] MatrixAssemblyPI: 3147.22 [ms]
[INFO] AdjustPhi: 186.108 [ms]
[INFO] ConstrainPressure: 0.003 [ms]
[INFO] MatrixAssemblyPII: 1004.27 [ms]
[OGL LOG][Proc: 0]: global_index_init: 0.031 [ms]
[OGL LOG][Proc: 0]p_local_coeffs: call_update: 0 [ms]
[OGL LOG][Proc: 0]p_non_local_coeffs: call_update: 0 [ms]
[OGL LOG][Proc: 0]p: update_local_matrix_data: 572.113 [ms]
[OGL LOG][Proc: 0]p: update_non_local_matrix_data: 0.87 [ms]
[OGL LOG][Proc: 0]p: regenerate_distributed_matrix: 1525.74 [ms]
[OGL LOG][Proc: 0]p_matrix: call_update: 1529.76 [ms]
[OGL LOG][Proc: 0]p_rhs: call_update: 36.429 [ms]
[OGL LOG][Proc: 0]p: init_precond: 0.028 [ms]
[OGL LOG][StoppingCriterion.H:237] Creating stopping criterion with minIter 1848 frequency 8
[OGL LOG][Proc: 0]p: generate_solver: 0.002 [ms]
[OGL LOG][Proc: 0]p: solve: 10292.1 [ms]
[OGL LOG][Proc: 0]p: copy_x_back: 62.802 [ms]
[OGL LOG][lduLduBase.H:330] 
Statistics:
	Time per iteration: 3331 [mu s]
	Time per residual norm calculation: 185.000000 [mu s]
	Time per iteration and DOF: 0.052047 [ns]
	Retrieve results bandwidth 2.038000 [GByte/s]
[OGL LOG][Proc: 0]p: solve_multi_gpu: 11923.9 [ms]
nonecudaGKOCG:  Solving for p, Initial residual = 0.981159, Final residual = 8.49292e-05, No Iterations 3089
[INFO] SolveP: 12610.8 [ms]
time step continuity errors : sum local = 6.62487e-08, global = 5.25958e-22, cumulative = 4.59234e-21
[INFO] ContinuityError: 347.536 [ms]
[INFO] CorrectBoundary: 2.534 [ms]
[INFO] PISOStep: 18423.7 [ms]
[INFO] MatrixAssemblyPI: 3028.17 [ms]
[INFO] AdjustPhi: 185.867 [ms]
[INFO] ConstrainPressure: 0.003 [ms]
[INFO] MatrixAssemblyPII: 993.916 [ms]
[OGL LOG][Proc: 0]: global_index_init: 0.014 [ms]
[OGL LOG][Proc: 0]p_local_coeffs: call_update: 0 [ms]
[OGL LOG][Proc: 0]p_non_local_coeffs: call_update: 0 [ms]
[OGL LOG][Proc: 0]p: update_local_matrix_data: 579.141 [ms]
[OGL LOG][Proc: 0]p: update_non_local_matrix_data: 1.171 [ms]
[OGL LOG][Proc: 0]p: regenerate_distributed_matrix: 1529.19 [ms]
[OGL LOG][Proc: 0]p_matrix: call_update: 1533.19 [ms]
[OGL LOG][Proc: 0]p_rhs: call_update: 36.203 [ms]
[OGL LOG][Proc: 0]p: init_precond: 0.029 [ms]
[OGL LOG][StoppingCriterion.H:237] Creating stopping criterion with minIter 1853 frequency 8
[OGL LOG][Proc: 0]p: generate_solver: 0.001 [ms]
[OGL LOG][Proc: 0]p: solve: 10270.4 [ms]
[OGL LOG][Proc: 0]p: copy_x_back: 62.632 [ms]
[OGL LOG][lduLduBase.H:330] 
Statistics:
	Time per iteration: 3333 [mu s]
	Time per residual norm calculation: 178.000000 [mu s]
	Time per iteration and DOF: 0.052078 [ns]
	Retrieve results bandwidth 2.043000 [GByte/s]
[OGL LOG][Proc: 0]p: solve_multi_gpu: 11904.4 [ms]
nonecudaGKOCG:  Solving for p, Initial residual = 0.921131, Final residual = 9.61142e-05, No Iterations 3081
[INFO] SolveP: 12595.3 [ms]
time step continuity errors : sum local = 7.53843e-08, global = 1.56994e-21, cumulative = 6.16227e-21
[INFO] ContinuityError: 349.099 [ms]
[INFO] CorrectBoundary: 20.257 [ms]
[INFO] PISOStep: 18267.8 [ms]
[INFO] TimeStep: 63280.8 [ms]
ExecutionTime = 1067.41 s  ClockTime = 1070 s

Time = 0.00225

Courant Number mean: 0.043819 max: 2.89688
[INFO] MatrixAssemblyU: 2836.68 [ms]
DILUPBiCGStab:  Solving for Ux, Initial residual = 0.108323, Final residual = 0.00526537, No Iterations 5
DILUPBiCGStab:  Solving for Uy, Initial residual = 0.362819, Final residual = 0.0156015, No Iterations 5
DILUPBiCGStab:  Solving for Uz, Initial residual = 0.749652, Final residual = 0.0326858, No Iterations 5
[INFO] MomentumPredictor: 23444.3 [ms]
[INFO] MatrixAssemblyPI: 3127.03 [ms]
[INFO] AdjustPhi: 187.455 [ms]
[INFO] ConstrainPressure: 0.002 [ms]
[INFO] MatrixAssemblyPII: 991.853 [ms]
[OGL LOG][Proc: 0]: global_index_init: 0.015 [ms]
[OGL LOG][Proc: 0]p_local_coeffs: call_update: 0 [ms]
[OGL LOG][Proc: 0]p_non_local_coeffs: call_update: 0 [ms]
[OGL LOG][Proc: 0]p: update_local_matrix_data: 573.229 [ms]
[OGL LOG][Proc: 0]p: update_non_local_matrix_data: 1.181 [ms]
[OGL LOG][Proc: 0]p: regenerate_distributed_matrix: 1523.29 [ms]
[OGL LOG][Proc: 0]p_matrix: call_update: 1527.24 [ms]
[OGL LOG][Proc: 0]p_rhs: call_update: 36.143 [ms]
[OGL LOG][Proc: 0]p: init_precond: 0.026 [ms]
[OGL LOG][StoppingCriterion.H:237] Creating stopping criterion with minIter 1848 frequency 8
[OGL LOG][Proc: 0]p: generate_solver: 0.001 [ms]
[OGL LOG][Proc: 0]p: solve: 10267.9 [ms]
[OGL LOG][Proc: 0]p: copy_x_back: 62.352 [ms]
[OGL LOG][lduLduBase.H:330] 
Statistics:
	Time per iteration: 3332 [mu s]
	Time per residual norm calculation: 183.000000 [mu s]
	Time per iteration and DOF: 0.052062 [ns]
	Retrieve results bandwidth 2.052000 [GByte/s]
[OGL LOG][Proc: 0]p: solve_multi_gpu: 11895.9 [ms]
nonecudaGKOCG:  Solving for p, Initial residual = 0.98243, Final residual = 9.69496e-05, No Iterations 3081
[INFO] SolveP: 12568.1 [ms]
time step continuity errors : sum local = 9.05367e-08, global = 2.23597e-22, cumulative = 6.38587e-21
[INFO] ContinuityError: 334.363 [ms]
[INFO] CorrectBoundary: 2.185 [ms]
[INFO] PISOStep: 18306.5 [ms]
[INFO] MatrixAssemblyPI: 3040.24 [ms]
[INFO] AdjustPhi: 185.369 [ms]
[INFO] ConstrainPressure: 0.003 [ms]
[INFO] MatrixAssemblyPII: 1007.67 [ms]
[OGL LOG][Proc: 0]: global_index_init: 0.011 [ms]
[OGL LOG][Proc: 0]p_local_coeffs: call_update: 0 [ms]
[OGL LOG][Proc: 0]p_non_local_coeffs: call_update: 0 [ms]
[OGL LOG][Proc: 0]p: update_local_matrix_data: 577.903 [ms]
[OGL LOG][Proc: 0]p: update_non_local_matrix_data: 0.866 [ms]
[OGL LOG][Proc: 0]p: regenerate_distributed_matrix: 1528.29 [ms]
[OGL LOG][Proc: 0]p_matrix: call_update: 1532.27 [ms]
[OGL LOG][Proc: 0]p_rhs: call_update: 36.364 [ms]
[OGL LOG][Proc: 0]p: init_precond: 0.025 [ms]
[OGL LOG][StoppingCriterion.H:237] Creating stopping criterion with minIter 1848 frequency 8
[OGL LOG][Proc: 0]p: generate_solver: 0.001 [ms]
[OGL LOG][Proc: 0]p: solve: 10271.6 [ms]
[OGL LOG][Proc: 0]p: copy_x_back: 63.042 [ms]
[OGL LOG][lduLduBase.H:330] 
Statistics:
	Time per iteration: 3333 [mu s]
	Time per residual norm calculation: 179.000000 [mu s]
	Time per iteration and DOF: 0.052078 [ns]
	Retrieve results bandwidth 2.030000 [GByte/s]
[OGL LOG][Proc: 0]p: solve_multi_gpu: 11906.2 [ms]
nonecudaGKOCG:  Solving for p, Initial residual = 0.918158, Final residual = 9.57909e-05, No Iterations 3081
[INFO] SolveP: 12599.1 [ms]
time step continuity errors : sum local = 9.03327e-08, global = 1.00978e-21, cumulative = 7.39565e-21
[INFO] ContinuityError: 347.413 [ms]
[INFO] CorrectBoundary: 2.525 [ms]
[INFO] PISOStep: 18329.5 [ms]
[INFO] TimeStep: 63275.8 [ms]
ExecutionTime = 1130.56 s  ClockTime = 1134 s

Time = 0.002375

Courant Number mean: 0.0454855 max: 4.02349
[INFO] MatrixAssemblyU: 2845.3 [ms]
DILUPBiCGStab:  Solving for Ux, Initial residual = 0.122592, Final residual = 0.00571662, No Iterations 5
DILUPBiCGStab:  Solving for Uy, Initial residual = 0.399896, Final residual = 0.0170532, No Iterations 5
DILUPBiCGStab:  Solving for Uz, Initial residual = 0.753623, Final residual = 0.0326763, No Iterations 5
[INFO] MomentumPredictor: 23413.4 [ms]
[INFO] MatrixAssemblyPI: 3123.46 [ms]
[INFO] AdjustPhi: 186.747 [ms]
[INFO] ConstrainPressure: 0.003 [ms]
[INFO] MatrixAssemblyPII: 990.789 [ms]
[OGL LOG][Proc: 0]: global_index_init: 0.015 [ms]
[OGL LOG][Proc: 0]p_local_coeffs: call_update: 0 [ms]
[OGL LOG][Proc: 0]p_non_local_coeffs: call_update: 0 [ms]
[OGL LOG][Proc: 0]p: update_local_matrix_data: 571.839 [ms]
[OGL LOG][Proc: 0]p: update_non_local_matrix_data: 1.181 [ms]
[OGL LOG][Proc: 0]p: regenerate_distributed_matrix: 1534.53 [ms]
[OGL LOG][Proc: 0]p_matrix: call_update: 1538.51 [ms]
[OGL LOG][Proc: 0]p_rhs: call_update: 36.056 [ms]
[OGL LOG][Proc: 0]p: init_precond: 0.027 [ms]
[OGL LOG][StoppingCriterion.H:237] Creating stopping criterion with minIter 1848 frequency 8
[OGL LOG][Proc: 0]p: generate_solver: 0.002 [ms]
[OGL LOG][Proc: 0]p: solve: 10290.5 [ms]
[OGL LOG][Proc: 0]p: copy_x_back: 63.117 [ms]
[OGL LOG][lduLduBase.H:330] 
Statistics:
	Time per iteration: 3331 [mu s]
	Time per residual norm calculation: 183.000000 [mu s]
	Time per iteration and DOF: 0.052047 [ns]
	Retrieve results bandwidth 2.027000 [GByte/s]
[OGL LOG][Proc: 0]p: solve_multi_gpu: 11930.4 [ms]
nonecudaGKOCG:  Solving for p, Initial residual = 0.982883, Final residual = 9.49551e-05, No Iterations 3089
[INFO] SolveP: 12617.6 [ms]
time step continuity errors : sum local = 1.06642e-07, global = 1.31935e-21, cumulative = 8.715e-21
[INFO] ContinuityError: 347.314 [ms]
[INFO] CorrectBoundary: 19.728 [ms]
[INFO] PISOStep: 18383.1 [ms]
[INFO] MatrixAssemblyPI: 3050.62 [ms]
[INFO] AdjustPhi: 185.278 [ms]
[INFO] ConstrainPressure: 0.003 [ms]
[INFO] MatrixAssemblyPII: 1029.15 [ms]
[OGL LOG][Proc: 0]: global_index_init: 0.013 [ms]
[OGL LOG][Proc: 0]p_local_coeffs: call_update: 0 [ms]
[OGL LOG][Proc: 0]p_non_local_coeffs: call_update: 0 [ms]
[OGL LOG][Proc: 0]p: update_local_matrix_data: 577.37 [ms]
[OGL LOG][Proc: 0]p: update_non_local_matrix_data: 1.355 [ms]
[OGL LOG][Proc: 0]p: regenerate_distributed_matrix: 1528.28 [ms]
[OGL LOG][Proc: 0]p_matrix: call_update: 1532.31 [ms]
[OGL LOG][Proc: 0]p_rhs: call_update: 35.897 [ms]
[OGL LOG][Proc: 0]p: init_precond: 0.028 [ms]
[OGL LOG][StoppingCriterion.H:237] Creating stopping criterion with minIter 1853 frequency 8
[OGL LOG][Proc: 0]p: generate_solver: 0.001 [ms]
[OGL LOG][Proc: 0]p: solve: 10309.4 [ms]
[OGL LOG][Proc: 0]p: copy_x_back: 63.574 [ms]
[OGL LOG][lduLduBase.H:330] 
Statistics:
	Time per iteration: 3337 [mu s]
	Time per residual norm calculation: 185.000000 [mu s]
	Time per iteration and DOF: 0.052141 [ns]
	Retrieve results bandwidth 2.013000 [GByte/s]
[OGL LOG][Proc: 0]p: solve_multi_gpu: 11944.1 [ms]
nonecudaGKOCG:  Solving for p, Initial residual = 0.921411, Final residual = 8.89535e-05, No Iterations 3089
[INFO] SolveP: 12619.8 [ms]
time step continuity errors : sum local = 1.0056e-07, global = 4.84986e-22, cumulative = 9.19999e-21
[INFO] ContinuityError: 351.92 [ms]
[INFO] CorrectBoundary: 2.567 [ms]
[INFO] PISOStep: 18337.3 [ms]
[INFO] TimeStep: 63337.7 [ms]
ExecutionTime = 1193.73 s  ClockTime = 1197 s

Time = 0.0025

Courant Number mean: 0.0466355 max: 4.7956
[INFO] MatrixAssemblyU: 2835.2 [ms]
DILUPBiCGStab:  Solving for Ux, Initial residual = 0.146527, Final residual = 0.00659517, No Iterations 5
DILUPBiCGStab:  Solving for Uy, Initial residual = 0.428078, Final residual = 0.017662, No Iterations 5
DILUPBiCGStab:  Solving for Uz, Initial residual = 0.755142, Final residual = 0.0324661, No Iterations 5
[INFO] MomentumPredictor: 23385.5 [ms]
[INFO] MatrixAssemblyPI: 3125.03 [ms]
[INFO] AdjustPhi: 186.937 [ms]
[INFO] ConstrainPressure: 0.003 [ms]
[INFO] MatrixAssemblyPII: 991.677 [ms]
[OGL LOG][Proc: 0]: global_index_init: 0.011 [ms]
[OGL LOG][Proc: 0]p_local_coeffs: call_update: 0 [ms]
[OGL LOG][Proc: 0]p_non_local_coeffs: call_update: 0 [ms]
[OGL LOG][Proc: 0]p: update_local_matrix_data: 572.013 [ms]
[OGL LOG][Proc: 0]p: update_non_local_matrix_data: 0.863 [ms]
[OGL LOG][Proc: 0]p: regenerate_distributed_matrix: 1524.76 [ms]
[OGL LOG][Proc: 0]p_matrix: call_update: 1528.69 [ms]
[OGL LOG][Proc: 0]p_rhs: call_update: 35.954 [ms]
[OGL LOG][Proc: 0]p: init_precond: 0.042 [ms]
[OGL LOG][StoppingCriterion.H:237] Creating stopping criterion with minIter 1853 frequency 8
[OGL LOG][Proc: 0]p: generate_solver: 0.003 [ms]
[OGL LOG][Proc: 0]p: solve: 10296.5 [ms]
[OGL LOG][Proc: 0]p: copy_x_back: 63.268 [ms]
[OGL LOG][lduLduBase.H:330] 
Statistics:
	Time per iteration: 3333 [mu s]
	Time per residual norm calculation: 183.000000 [mu s]
	Time per iteration and DOF: 0.052078 [ns]
	Retrieve results bandwidth 2.023000 [GByte/s]
[OGL LOG][Proc: 0]p: solve_multi_gpu: 11927.6 [ms]
nonecudaGKOCG:  Solving for p, Initial residual = 0.983822, Final residual = 9.55192e-05, No Iterations 3089
[INFO] SolveP: 12618 [ms]
time step continuity errors : sum local = 1.29334e-07, global = 7.62324e-22, cumulative = 9.96232e-21
[INFO] ContinuityError: 350.671 [ms]
[INFO] CorrectBoundary: 2.654 [ms]
[INFO] PISOStep: 18400.6 [ms]
[INFO] MatrixAssemblyPI: 3035.68 [ms]
[INFO] AdjustPhi: 184.69 [ms]
[INFO] ConstrainPressure: 0.002 [ms]
[INFO] MatrixAssemblyPII: 998.982 [ms]
[OGL LOG][Proc: 0]: global_index_init: 0.012 [ms]
[OGL LOG][Proc: 0]p_local_coeffs: call_update: 0 [ms]
[OGL LOG][Proc: 0]p_non_local_coeffs: call_update: 0 [ms]
[OGL LOG][Proc: 0]p: update_local_matrix_data: 577.812 [ms]
[OGL LOG][Proc: 0]p: update_non_local_matrix_data: 1.171 [ms]
[OGL LOG][Proc: 0]p: regenerate_distributed_matrix: 1527.4 [ms]
[OGL LOG][Proc: 0]p_matrix: call_update: 1531.4 [ms]
[OGL LOG][Proc: 0]p_rhs: call_update: 36.108 [ms]
[OGL LOG][Proc: 0]p: init_precond: 0.031 [ms]
[OGL LOG][StoppingCriterion.H:237] Creating stopping criterion with minIter 1853 frequency 8
[OGL LOG][Proc: 0]p: generate_solver: 0.002 [ms]
[OGL LOG][Proc: 0]p: solve: 10293.2 [ms]
[OGL LOG][Proc: 0]p: copy_x_back: 62.47 [ms]
[OGL LOG][lduLduBase.H:330] 
Statistics:
	Time per iteration: 3332 [mu s]
	Time per residual norm calculation: 176.000000 [mu s]
	Time per iteration and DOF: 0.052062 [ns]
	Retrieve results bandwidth 2.048000 [GByte/s]
[OGL LOG][Proc: 0]p: solve_multi_gpu: 11926 [ms]
nonecudaGKOCG:  Solving for p, Initial residual = 0.919541, Final residual = 9.19462e-05, No Iterations 3089
[INFO] SolveP: 12611.3 [ms]
time step continuity errors : sum local = 1.25687e-07, global = -2.24424e-22, cumulative = 9.73789e-21
[INFO] ContinuityError: 348.006 [ms]
[INFO] CorrectBoundary: 20.71 [ms]
[INFO] PISOStep: 18298.5 [ms]
[INFO] TimeStep: 63305.3 [ms]
ExecutionTime = 1256.91 s  ClockTime = 1260 s

End

Finalising parallel run
