/*---------------------------------------------------------------------------*\
| =========                 |                                                 |
| \\      /  F ield         | OpenFOAM: The Open Source CFD Toolbox           |
|  \\    /   O peration     | Version:  2212                                  |
|   \\  /    A nd           | Website:  www.openfoam.com                      |
|    \\/     M anipulation  |                                                 |
\*---------------------------------------------------------------------------*/
Build  : 5614a571f2-20230228 OPENFOAM=2212 patch=230110 version=v2212
Arch   : "LSB;label=32;scalar=64"
Exec   : decomposePar -force
Date   : Jul 03 2023
Time   : 07:13:07
Host   : guyot
PID    : 2703219
--> FOAM Warning : 
    From Foam::fileName Foam::cwd_L()
    in file POSIX.C at line 505
    PWD is not the cwd() - reverting to physical description
I/O    : uncollated
--> FOAM Warning : 
    From Foam::fileName Foam::cwd_L()
    in file POSIX.C at line 505
    PWD is not the cwd() - reverting to physical description
Case   : /home/greole/data/code/exasim-project/micro_benchmarks/LidDrivenCavity3D/workspace/6ba85b5e91c0cd7755c3fe9ca6f4b87a/case
nProcs : 1
trapFpe: Floating point exception trapping enabled (FOAM_SIGFPE).
fileModificationChecking : Monitoring run-time modified files using timeStampMaster (fileModificationSkew 5, maxFileModificationPolls 20)
allowSystemOperations : Allowing user-supplied system call operations

// * * * * * * * * * * * * * * * * * * * * * * * * * * * * * * * * * * * * * //
Create time

--> FOAM Warning : 
    From void* Foam::dlLibraryTable::openLibrary(const Foam::fileName&, bool)
    in file db/dynamicLibrary/dlLibraryTable/dlLibraryTable.C at line 188
    Could not load "libpetscFoam.so"
libpetscFoam.so: cannot open shared object file: No such file or directory


Decomposing mesh

Create mesh

Calculating distribution of cells
Decomposition method simple [64] (region region0)

Finished decomposition in 52.69 s

Calculating original mesh data

Distributing cells to processors

Distributing faces to processors

Distributing points to processors

Constructing processor meshes
--> FOAM Warning : 
    From void* Foam::dlLibraryTable::openLibrary(const Foam::fileName&, bool)
    in file db/dynamicLibrary/dlLibraryTable/dlLibraryTable.C at line 188
    Could not load "libpetscFoam.so"
libpetscFoam.so: cannot open shared object file: No such file or directory

Processor 0
    Number of cells = 1000000
    Number of points = 1035351
    Number of faces shared with processor 1 = 20000
    Number of faces shared with processor 8 = 10000
    Number of faces shared with processor 32 = 5000
    Number of processor patches = 3
    Number of processor faces = 35000
    Number of boundary faces = 35000
--> FOAM Warning : 
    From void* Foam::dlLibraryTable::openLibrary(const Foam::fileName&, bool)
    in file db/dynamicLibrary/dlLibraryTable/dlLibraryTable.C at line 188
    Could not load "libpetscFoam.so"
libpetscFoam.so: cannot open shared object file: No such file or directory

Processor 1
    Number of cells = 1000000
    Number of points = 1035351
    Number of faces shared with processor 0 = 20000
    Number of faces shared with processor 2 = 20000
    Number of faces shared with processor 9 = 10000
    Number of faces shared with processor 33 = 5000
    Number of processor patches = 4
    Number of processor faces = 55000
    Number of boundary faces = 15000
--> FOAM Warning : 
    From void* Foam::dlLibraryTable::openLibrary(const Foam::fileName&, bool)
    in file db/dynamicLibrary/dlLibraryTable/dlLibraryTable.C at line 188
    Could not load "libpetscFoam.so"
libpetscFoam.so: cannot open shared object file: No such file or directory

Processor 2
    Number of cells = 1000000
    Number of points = 1035351
    Number of faces shared with processor 1 = 20000
    Number of faces shared with processor 3 = 20000
    Number of faces shared with processor 10 = 10000
    Number of faces shared with processor 34 = 5000
    Number of processor patches = 4
    Number of processor faces = 55000
    Number of boundary faces = 15000
--> FOAM Warning : 
    From void* Foam::dlLibraryTable::openLibrary(const Foam::fileName&, bool)
    in file db/dynamicLibrary/dlLibraryTable/dlLibraryTable.C at line 188
    Could not load "libpetscFoam.so"
libpetscFoam.so: cannot open shared object file: No such file or directory

Processor 3
    Number of cells = 1000000
    Number of points = 1035351
    Number of faces shared with processor 2 = 20000
    Number of faces shared with processor 4 = 20000
    Number of faces shared with processor 11 = 10000
    Number of faces shared with processor 35 = 5000
    Number of processor patches = 4
    Number of processor faces = 55000
    Number of boundary faces = 15000
--> FOAM Warning : 
    From void* Foam::dlLibraryTable::openLibrary(const Foam::fileName&, bool)
    in file db/dynamicLibrary/dlLibraryTable/dlLibraryTable.C at line 188
    Could not load "libpetscFoam.so"
libpetscFoam.so: cannot open shared object file: No such file or directory

Processor 4
    Number of cells = 1000000
    Number of points = 1035351
    Number of faces shared with processor 3 = 20000
    Number of faces shared with processor 5 = 20000
    Number of faces shared with processor 12 = 10000
    Number of faces shared with processor 36 = 5000
    Number of processor patches = 4
    Number of processor faces = 55000
    Number of boundary faces = 15000
--> FOAM Warning : 
    From void* Foam::dlLibraryTable::openLibrary(const Foam::fileName&, bool)
    in file db/dynamicLibrary/dlLibraryTable/dlLibraryTable.C at line 188
    Could not load "libpetscFoam.so"
libpetscFoam.so: cannot open shared object file: No such file or directory

Processor 5
    Number of cells = 1000000
    Number of points = 1035351
    Number of faces shared with processor 4 = 20000
    Number of faces shared with processor 6 = 20000
    Number of faces shared with processor 13 = 10000
    Number of faces shared with processor 37 = 5000
    Number of processor patches = 4
    Number of processor faces = 55000
    Number of boundary faces = 15000
--> FOAM Warning : 
    From void* Foam::dlLibraryTable::openLibrary(const Foam::fileName&, bool)
    in file db/dynamicLibrary/dlLibraryTable/dlLibraryTable.C at line 188
    Could not load "libpetscFoam.so"
libpetscFoam.so: cannot open shared object file: No such file or directory

Processor 6
    Number of cells = 999375
    Number of points = 1034726
    Number of faces shared with processor 5 = 20000
    Number of faces shared with processor 7 = 19975
    Number of faces shared with processor 14 = 10000
    Number of faces shared with processor 38 = 5074
    Number of processor patches = 4
    Number of processor faces = 55049
    Number of boundary faces = 14951
--> FOAM Warning : 
    From void* Foam::dlLibraryTable::openLibrary(const Foam::fileName&, bool)
    in file db/dynamicLibrary/dlLibraryTable/dlLibraryTable.C at line 188
    Could not load "libpetscFoam.so"
libpetscFoam.so: cannot open shared object file: No such file or directory

Processor 7
    Number of cells = 998125
    Number of points = 1033451
    Number of faces shared with processor 6 = 19975
    Number of faces shared with processor 15 = 10000
    Number of faces shared with processor 39 = 5075
    Number of processor patches = 3
    Number of processor faces = 35050
    Number of boundary faces = 34900
--> FOAM Warning : 
    From void* Foam::dlLibraryTable::openLibrary(const Foam::fileName&, bool)
    in file db/dynamicLibrary/dlLibraryTable/dlLibraryTable.C at line 188
    Could not load "libpetscFoam.so"
libpetscFoam.so: cannot open shared object file: No such file or directory

Processor 8
    Number of cells = 1000000
    Number of points = 1035351
    Number of faces shared with processor 0 = 10000
    Number of faces shared with processor 9 = 20000
    Number of faces shared with processor 16 = 10000
    Number of faces shared with processor 40 = 5000
    Number of processor patches = 4
    Number of processor faces = 45000
    Number of boundary faces = 25000
--> FOAM Warning : 
    From void* Foam::dlLibraryTable::openLibrary(const Foam::fileName&, bool)
    in file db/dynamicLibrary/dlLibraryTable/dlLibraryTable.C at line 188
    Could not load "libpetscFoam.so"
libpetscFoam.so: cannot open shared object file: No such file or directory

Processor 9
    Number of cells = 1000000
    Number of points = 1035351
    Number of faces shared with processor 1 = 10000
    Number of faces shared with processor 8 = 20000
    Number of faces shared with processor 10 = 20000
    Number of faces shared with processor 17 = 10000
    Number of faces shared with processor 41 = 5000
    Number of processor patches = 5
    Number of processor faces = 65000
    Number of boundary faces = 5000
--> FOAM Warning : 
    From void* Foam::dlLibraryTable::openLibrary(const Foam::fileName&, bool)
    in file db/dynamicLibrary/dlLibraryTable/dlLibraryTable.C at line 188
    Could not load "libpetscFoam.so"
libpetscFoam.so: cannot open shared object file: No such file or directory

Processor 10
    Number of cells = 1000000
    Number of points = 1035351
    Number of faces shared with processor 2 = 10000
    Number of faces shared with processor 9 = 20000
    Number of faces shared with processor 11 = 20000
    Number of faces shared with processor 18 = 10000
    Number of faces shared with processor 42 = 5000
    Number of processor patches = 5
    Number of processor faces = 65000
    Number of boundary faces = 5000
--> FOAM Warning : 
    From void* Foam::dlLibraryTable::openLibrary(const Foam::fileName&, bool)
    in file db/dynamicLibrary/dlLibraryTable/dlLibraryTable.C at line 188
    Could not load "libpetscFoam.so"
libpetscFoam.so: cannot open shared object file: No such file or directory

Processor 11
    Number of cells = 1000000
    Number of points = 1035351
    Number of faces shared with processor 3 = 10000
    Number of faces shared with processor 10 = 20000
    Number of faces shared with processor 12 = 20000
    Number of faces shared with processor 19 = 10000
    Number of faces shared with processor 43 = 5000
    Number of processor patches = 5
    Number of processor faces = 65000
    Number of boundary faces = 5000
--> FOAM Warning : 
    From void* Foam::dlLibraryTable::openLibrary(const Foam::fileName&, bool)
    in file db/dynamicLibrary/dlLibraryTable/dlLibraryTable.C at line 188
    Could not load "libpetscFoam.so"
libpetscFoam.so: cannot open shared object file: No such file or directory

Processor 12
    Number of cells = 1000000
    Number of points = 1035351
    Number of faces shared with processor 4 = 10000
    Number of faces shared with processor 11 = 20000
    Number of faces shared with processor 13 = 20000
    Number of faces shared with processor 20 = 10000
    Number of faces shared with processor 44 = 5000
    Number of processor patches = 5
    Number of processor faces = 65000
    Number of boundary faces = 5000
--> FOAM Warning : 
    From void* Foam::dlLibraryTable::openLibrary(const Foam::fileName&, bool)
    in file db/dynamicLibrary/dlLibraryTable/dlLibraryTable.C at line 188
    Could not load "libpetscFoam.so"
libpetscFoam.so: cannot open shared object file: No such file or directory

Processor 13
    Number of cells = 1000000
    Number of points = 1035351
    Number of faces shared with processor 5 = 10000
    Number of faces shared with processor 12 = 20000
    Number of faces shared with processor 14 = 20000
    Number of faces shared with processor 21 = 10000
    Number of faces shared with processor 45 = 5000
    Number of processor patches = 5
    Number of processor faces = 65000
    Number of boundary faces = 5000
--> FOAM Warning : 
    From void* Foam::dlLibraryTable::openLibrary(const Foam::fileName&, bool)
    in file db/dynamicLibrary/dlLibraryTable/dlLibraryTable.C at line 188
    Could not load "libpetscFoam.so"
libpetscFoam.so: cannot open shared object file: No such file or directory

Processor 14
    Number of cells = 1000000
    Number of points = 1035351
    Number of faces shared with processor 6 = 10000
    Number of faces shared with processor 13 = 20000
    Number of faces shared with processor 15 = 20000
    Number of faces shared with processor 22 = 10000
    Number of faces shared with processor 46 = 5000
    Number of processor patches = 5
    Number of processor faces = 65000
    Number of boundary faces = 5000
--> FOAM Warning : 
    From void* Foam::dlLibraryTable::openLibrary(const Foam::fileName&, bool)
    in file db/dynamicLibrary/dlLibraryTable/dlLibraryTable.C at line 188
    Could not load "libpetscFoam.so"
libpetscFoam.so: cannot open shared object file: No such file or directory

Processor 15
    Number of cells = 1000000
    Number of points = 1035351
    Number of faces shared with processor 7 = 10000
    Number of faces shared with processor 14 = 20000
    Number of faces shared with processor 23 = 10000
    Number of faces shared with processor 47 = 5000
    Number of processor patches = 4
    Number of processor faces = 45000
    Number of boundary faces = 25000
--> FOAM Warning : 
    From void* Foam::dlLibraryTable::openLibrary(const Foam::fileName&, bool)
    in file db/dynamicLibrary/dlLibraryTable/dlLibraryTable.C at line 188
    Could not load "libpetscFoam.so"
libpetscFoam.so: cannot open shared object file: No such file or directory

Processor 16
    Number of cells = 1000000
    Number of points = 1035351
    Number of faces shared with processor 8 = 10000
    Number of faces shared with processor 17 = 20000
    Number of faces shared with processor 24 = 10000
    Number of faces shared with processor 48 = 5000
    Number of processor patches = 4
    Number of processor faces = 45000
    Number of boundary faces = 25000
--> FOAM Warning : 
    From void* Foam::dlLibraryTable::openLibrary(const Foam::fileName&, bool)
    in file db/dynamicLibrary/dlLibraryTable/dlLibraryTable.C at line 188
    Could not load "libpetscFoam.so"
libpetscFoam.so: cannot open shared object file: No such file or directory

Processor 17
    Number of cells = 1000000
    Number of points = 1035351
    Number of faces shared with processor 9 = 10000
    Number of faces shared with processor 16 = 20000
    Number of faces shared with processor 18 = 20000
    Number of faces shared with processor 25 = 10000
    Number of faces shared with processor 49 = 5000
    Number of processor patches = 5
    Number of processor faces = 65000
    Number of boundary faces = 5000
--> FOAM Warning : 
    From void* Foam::dlLibraryTable::openLibrary(const Foam::fileName&, bool)
    in file db/dynamicLibrary/dlLibraryTable/dlLibraryTable.C at line 188
    Could not load "libpetscFoam.so"
libpetscFoam.so: cannot open shared object file: No such file or directory

Processor 18
    Number of cells = 1000000
    Number of points = 1035351
    Number of faces shared with processor 10 = 10000
    Number of faces shared with processor 17 = 20000
    Number of faces shared with processor 19 = 20000
    Number of faces shared with processor 26 = 10000
    Number of faces shared with processor 50 = 5000
    Number of processor patches = 5
    Number of processor faces = 65000
    Number of boundary faces = 5000
--> FOAM Warning : 
    From void* Foam::dlLibraryTable::openLibrary(const Foam::fileName&, bool)
    in file db/dynamicLibrary/dlLibraryTable/dlLibraryTable.C at line 188
    Could not load "libpetscFoam.so"
libpetscFoam.so: cannot open shared object file: No such file or directory

Processor 19
    Number of cells = 1000000
    Number of points = 1035351
    Number of faces shared with processor 11 = 10000
    Number of faces shared with processor 18 = 20000
    Number of faces shared with processor 20 = 20000
    Number of faces shared with processor 27 = 10000
    Number of faces shared with processor 51 = 5000
    Number of processor patches = 5
    Number of processor faces = 65000
    Number of boundary faces = 5000
--> FOAM Warning : 
    From void* Foam::dlLibraryTable::openLibrary(const Foam::fileName&, bool)
    in file db/dynamicLibrary/dlLibraryTable/dlLibraryTable.C at line 188
    Could not load "libpetscFoam.so"
libpetscFoam.so: cannot open shared object file: No such file or directory

Processor 20
    Number of cells = 1000000
    Number of points = 1035351
    Number of faces shared with processor 12 = 10000
    Number of faces shared with processor 19 = 20000
    Number of faces shared with processor 21 = 20000
    Number of faces shared with processor 28 = 10000
    Number of faces shared with processor 52 = 5000
    Number of processor patches = 5
    Number of processor faces = 65000
    Number of boundary faces = 5000
--> FOAM Warning : 
    From void* Foam::dlLibraryTable::openLibrary(const Foam::fileName&, bool)
    in file db/dynamicLibrary/dlLibraryTable/dlLibraryTable.C at line 188
    Could not load "libpetscFoam.so"
libpetscFoam.so: cannot open shared object file: No such file or directory

Processor 21
    Number of cells = 1000000
    Number of points = 1035351
    Number of faces shared with processor 13 = 10000
    Number of faces shared with processor 20 = 20000
    Number of faces shared with processor 22 = 20000
    Number of faces shared with processor 29 = 10000
    Number of faces shared with processor 53 = 5000
    Number of processor patches = 5
    Number of processor faces = 65000
    Number of boundary faces = 5000
--> FOAM Warning : 
    From void* Foam::dlLibraryTable::openLibrary(const Foam::fileName&, bool)
    in file db/dynamicLibrary/dlLibraryTable/dlLibraryTable.C at line 188
    Could not load "libpetscFoam.so"
libpetscFoam.so: cannot open shared object file: No such file or directory

Processor 22
    Number of cells = 1000000
    Number of points = 1035351
    Number of faces shared with processor 14 = 10000
    Number of faces shared with processor 21 = 20000
    Number of faces shared with processor 23 = 20000
    Number of faces shared with processor 30 = 10000
    Number of faces shared with processor 54 = 5000
    Number of processor patches = 5
    Number of processor faces = 65000
    Number of boundary faces = 5000
--> FOAM Warning : 
    From void* Foam::dlLibraryTable::openLibrary(const Foam::fileName&, bool)
    in file db/dynamicLibrary/dlLibraryTable/dlLibraryTable.C at line 188
    Could not load "libpetscFoam.so"
libpetscFoam.so: cannot open shared object file: No such file or directory

Processor 23
    Number of cells = 1000000
    Number of points = 1035351
    Number of faces shared with processor 15 = 10000
    Number of faces shared with processor 22 = 20000
    Number of faces shared with processor 31 = 10000
    Number of faces shared with processor 55 = 5000
    Number of processor patches = 4
    Number of processor faces = 45000
    Number of boundary faces = 25000
--> FOAM Warning : 
    From void* Foam::dlLibraryTable::openLibrary(const Foam::fileName&, bool)
    in file db/dynamicLibrary/dlLibraryTable/dlLibraryTable.C at line 188
    Could not load "libpetscFoam.so"
libpetscFoam.so: cannot open shared object file: No such file or directory

Processor 24
    Number of cells = 1001875
    Number of points = 1037327
    Number of faces shared with processor 16 = 10000
    Number of faces shared with processor 25 = 20025
    Number of faces shared with processor 56 = 5075
    Number of processor patches = 3
    Number of processor faces = 35100
    Number of boundary faces = 35100
--> FOAM Warning : 
    From void* Foam::dlLibraryTable::openLibrary(const Foam::fileName&, bool)
    in file db/dynamicLibrary/dlLibraryTable/dlLibraryTable.C at line 188
    Could not load "libpetscFoam.so"
libpetscFoam.so: cannot open shared object file: No such file or directory

Processor 25
    Number of cells = 1000625
    Number of points = 1036051
    Number of faces shared with processor 17 = 10000
    Number of faces shared with processor 24 = 20025
    Number of faces shared with processor 26 = 20000
    Number of faces shared with processor 57 = 5074
    Number of processor patches = 4
    Number of processor faces = 55099
    Number of boundary faces = 15049
--> FOAM Warning : 
    From void* Foam::dlLibraryTable::openLibrary(const Foam::fileName&, bool)
    in file db/dynamicLibrary/dlLibraryTable/dlLibraryTable.C at line 188
    Could not load "libpetscFoam.so"
libpetscFoam.so: cannot open shared object file: No such file or directory

Processor 26
    Number of cells = 1000000
    Number of points = 1035351
    Number of faces shared with processor 18 = 10000
    Number of faces shared with processor 25 = 20000
    Number of faces shared with processor 27 = 20000
    Number of faces shared with processor 58 = 5000
    Number of processor patches = 4
    Number of processor faces = 55000
    Number of boundary faces = 15000
--> FOAM Warning : 
    From void* Foam::dlLibraryTable::openLibrary(const Foam::fileName&, bool)
    in file db/dynamicLibrary/dlLibraryTable/dlLibraryTable.C at line 188
    Could not load "libpetscFoam.so"
libpetscFoam.so: cannot open shared object file: No such file or directory

Processor 27
    Number of cells = 1000000
    Number of points = 1035351
    Number of faces shared with processor 19 = 10000
    Number of faces shared with processor 26 = 20000
    Number of faces shared with processor 28 = 20000
    Number of faces shared with processor 59 = 5000
    Number of processor patches = 4
    Number of processor faces = 55000
    Number of boundary faces = 15000
--> FOAM Warning : 
    From void* Foam::dlLibraryTable::openLibrary(const Foam::fileName&, bool)
    in file db/dynamicLibrary/dlLibraryTable/dlLibraryTable.C at line 188
    Could not load "libpetscFoam.so"
libpetscFoam.so: cannot open shared object file: No such file or directory

Processor 28
    Number of cells = 1000000
    Number of points = 1035351
    Number of faces shared with processor 20 = 10000
    Number of faces shared with processor 27 = 20000
    Number of faces shared with processor 29 = 20000
    Number of faces shared with processor 60 = 5000
    Number of processor patches = 4
    Number of processor faces = 55000
    Number of boundary faces = 15000
--> FOAM Warning : 
    From void* Foam::dlLibraryTable::openLibrary(const Foam::fileName&, bool)
    in file db/dynamicLibrary/dlLibraryTable/dlLibraryTable.C at line 188
    Could not load "libpetscFoam.so"
libpetscFoam.so: cannot open shared object file: No such file or directory

Processor 29
    Number of cells = 1000000
    Number of points = 1035351
    Number of faces shared with processor 21 = 10000
    Number of faces shared with processor 28 = 20000
    Number of faces shared with processor 30 = 20000
    Number of faces shared with processor 61 = 5000
    Number of processor patches = 4
    Number of processor faces = 55000
    Number of boundary faces = 15000
--> FOAM Warning : 
    From void* Foam::dlLibraryTable::openLibrary(const Foam::fileName&, bool)
    in file db/dynamicLibrary/dlLibraryTable/dlLibraryTable.C at line 188
    Could not load "libpetscFoam.so"
libpetscFoam.so: cannot open shared object file: No such file or directory

Processor 30
    Number of cells = 1000000
    Number of points = 1035351
    Number of faces shared with processor 22 = 10000
    Number of faces shared with processor 29 = 20000
    Number of faces shared with processor 31 = 20000
    Number of faces shared with processor 62 = 5000
    Number of processor patches = 4
    Number of processor faces = 55000
    Number of boundary faces = 15000
--> FOAM Warning : 
    From void* Foam::dlLibraryTable::openLibrary(const Foam::fileName&, bool)
    in file db/dynamicLibrary/dlLibraryTable/dlLibraryTable.C at line 188
    Could not load "libpetscFoam.so"
libpetscFoam.so: cannot open shared object file: No such file or directory

Processor 31
    Number of cells = 1000000
    Number of points = 1035351
    Number of faces shared with processor 23 = 10000
    Number of faces shared with processor 30 = 20000
    Number of faces shared with processor 63 = 5000
    Number of processor patches = 3
    Number of processor faces = 35000
    Number of boundary faces = 35000
--> FOAM Warning : 
    From void* Foam::dlLibraryTable::openLibrary(const Foam::fileName&, bool)
    in file db/dynamicLibrary/dlLibraryTable/dlLibraryTable.C at line 188
    Could not load "libpetscFoam.so"
libpetscFoam.so: cannot open shared object file: No such file or directory

Processor 32
    Number of cells = 1000000
    Number of points = 1035351
    Number of faces shared with processor 0 = 5000
    Number of faces shared with processor 33 = 20000
    Number of faces shared with processor 40 = 10000
    Number of processor patches = 3
    Number of processor faces = 35000
    Number of boundary faces = 35000
--> FOAM Warning : 
    From void* Foam::dlLibraryTable::openLibrary(const Foam::fileName&, bool)
    in file db/dynamicLibrary/dlLibraryTable/dlLibraryTable.C at line 188
    Could not load "libpetscFoam.so"
libpetscFoam.so: cannot open shared object file: No such file or directory

Processor 33
    Number of cells = 1000000
    Number of points = 1035351
    Number of faces shared with processor 1 = 5000
    Number of faces shared with processor 32 = 20000
    Number of faces shared with processor 34 = 20000
    Number of faces shared with processor 41 = 10000
    Number of processor patches = 4
    Number of processor faces = 55000
    Number of boundary faces = 15000
--> FOAM Warning : 
    From void* Foam::dlLibraryTable::openLibrary(const Foam::fileName&, bool)
    in file db/dynamicLibrary/dlLibraryTable/dlLibraryTable.C at line 188
    Could not load "libpetscFoam.so"
libpetscFoam.so: cannot open shared object file: No such file or directory

Processor 34
    Number of cells = 1000000
    Number of points = 1035351
    Number of faces shared with processor 2 = 5000
    Number of faces shared with processor 33 = 20000
    Number of faces shared with processor 35 = 20000
    Number of faces shared with processor 42 = 10000
    Number of processor patches = 4
    Number of processor faces = 55000
    Number of boundary faces = 15000
--> FOAM Warning : 
    From void* Foam::dlLibraryTable::openLibrary(const Foam::fileName&, bool)
    in file db/dynamicLibrary/dlLibraryTable/dlLibraryTable.C at line 188
    Could not load "libpetscFoam.so"
libpetscFoam.so: cannot open shared object file: No such file or directory

Processor 35
    Number of cells = 1000000
    Number of points = 1035351
    Number of faces shared with processor 3 = 5000
    Number of faces shared with processor 34 = 20000
    Number of faces shared with processor 36 = 20000
    Number of faces shared with processor 43 = 10000
    Number of processor patches = 4
    Number of processor faces = 55000
    Number of boundary faces = 15000
--> FOAM Warning : 
    From void* Foam::dlLibraryTable::openLibrary(const Foam::fileName&, bool)
    in file db/dynamicLibrary/dlLibraryTable/dlLibraryTable.C at line 188
    Could not load "libpetscFoam.so"
libpetscFoam.so: cannot open shared object file: No such file or directory

Processor 36
    Number of cells = 1000000
    Number of points = 1035351
    Number of faces shared with processor 4 = 5000
    Number of faces shared with processor 35 = 20000
    Number of faces shared with processor 37 = 20000
    Number of faces shared with processor 44 = 10000
    Number of processor patches = 4
    Number of processor faces = 55000
    Number of boundary faces = 15000
--> FOAM Warning : 
    From void* Foam::dlLibraryTable::openLibrary(const Foam::fileName&, bool)
    in file db/dynamicLibrary/dlLibraryTable/dlLibraryTable.C at line 188
    Could not load "libpetscFoam.so"
libpetscFoam.so: cannot open shared object file: No such file or directory

Processor 37
    Number of cells = 1000000
    Number of points = 1035351
    Number of faces shared with processor 5 = 5000
    Number of faces shared with processor 36 = 20000
    Number of faces shared with processor 38 = 20000
    Number of faces shared with processor 45 = 10000
    Number of processor patches = 4
    Number of processor faces = 55000
    Number of boundary faces = 15000
--> FOAM Warning : 
    From void* Foam::dlLibraryTable::openLibrary(const Foam::fileName&, bool)
    in file db/dynamicLibrary/dlLibraryTable/dlLibraryTable.C at line 188
    Could not load "libpetscFoam.so"
libpetscFoam.so: cannot open shared object file: No such file or directory

Processor 38
    Number of cells = 1000625
    Number of points = 1036051
    Number of faces shared with processor 6 = 5074
    Number of faces shared with processor 37 = 20000
    Number of faces shared with processor 39 = 20025
    Number of faces shared with processor 46 = 10000
    Number of processor patches = 4
    Number of processor faces = 55099
    Number of boundary faces = 15049
--> FOAM Warning : 
    From void* Foam::dlLibraryTable::openLibrary(const Foam::fileName&, bool)
    in file db/dynamicLibrary/dlLibraryTable/dlLibraryTable.C at line 188
    Could not load "libpetscFoam.so"
libpetscFoam.so: cannot open shared object file: No such file or directory

Processor 39
    Number of cells = 1001875
    Number of points = 1037327
    Number of faces shared with processor 7 = 5075
    Number of faces shared with processor 38 = 20025
    Number of faces shared with processor 47 = 10000
    Number of processor patches = 3
    Number of processor faces = 35100
    Number of boundary faces = 35100
--> FOAM Warning : 
    From void* Foam::dlLibraryTable::openLibrary(const Foam::fileName&, bool)
    in file db/dynamicLibrary/dlLibraryTable/dlLibraryTable.C at line 188
    Could not load "libpetscFoam.so"
libpetscFoam.so: cannot open shared object file: No such file or directory

Processor 40
    Number of cells = 1000000
    Number of points = 1035351
    Number of faces shared with processor 8 = 5000
    Number of faces shared with processor 32 = 10000
    Number of faces shared with processor 41 = 20000
    Number of faces shared with processor 48 = 10000
    Number of processor patches = 4
    Number of processor faces = 45000
    Number of boundary faces = 25000
--> FOAM Warning : 
    From void* Foam::dlLibraryTable::openLibrary(const Foam::fileName&, bool)
    in file db/dynamicLibrary/dlLibraryTable/dlLibraryTable.C at line 188
    Could not load "libpetscFoam.so"
libpetscFoam.so: cannot open shared object file: No such file or directory

Processor 41
    Number of cells = 1000000
    Number of points = 1035351
    Number of faces shared with processor 9 = 5000
    Number of faces shared with processor 33 = 10000
    Number of faces shared with processor 40 = 20000
    Number of faces shared with processor 42 = 20000
    Number of faces shared with processor 49 = 10000
    Number of processor patches = 5
    Number of processor faces = 65000
    Number of boundary faces = 5000
--> FOAM Warning : 
    From void* Foam::dlLibraryTable::openLibrary(const Foam::fileName&, bool)
    in file db/dynamicLibrary/dlLibraryTable/dlLibraryTable.C at line 188
    Could not load "libpetscFoam.so"
libpetscFoam.so: cannot open shared object file: No such file or directory

Processor 42
    Number of cells = 1000000
    Number of points = 1035351
    Number of faces shared with processor 10 = 5000
    Number of faces shared with processor 34 = 10000
    Number of faces shared with processor 41 = 20000
    Number of faces shared with processor 43 = 20000
    Number of faces shared with processor 50 = 10000
    Number of processor patches = 5
    Number of processor faces = 65000
    Number of boundary faces = 5000
--> FOAM Warning : 
    From void* Foam::dlLibraryTable::openLibrary(const Foam::fileName&, bool)
    in file db/dynamicLibrary/dlLibraryTable/dlLibraryTable.C at line 188
    Could not load "libpetscFoam.so"
libpetscFoam.so: cannot open shared object file: No such file or directory

Processor 43
    Number of cells = 1000000
    Number of points = 1035351
    Number of faces shared with processor 11 = 5000
    Number of faces shared with processor 35 = 10000
    Number of faces shared with processor 42 = 20000
    Number of faces shared with processor 44 = 20000
    Number of faces shared with processor 51 = 10000
    Number of processor patches = 5
    Number of processor faces = 65000
    Number of boundary faces = 5000
--> FOAM Warning : 
    From void* Foam::dlLibraryTable::openLibrary(const Foam::fileName&, bool)
    in file db/dynamicLibrary/dlLibraryTable/dlLibraryTable.C at line 188
    Could not load "libpetscFoam.so"
libpetscFoam.so: cannot open shared object file: No such file or directory

Processor 44
    Number of cells = 1000000
    Number of points = 1035351
    Number of faces shared with processor 12 = 5000
    Number of faces shared with processor 36 = 10000
    Number of faces shared with processor 43 = 20000
    Number of faces shared with processor 45 = 20000
    Number of faces shared with processor 52 = 10000
    Number of processor patches = 5
    Number of processor faces = 65000
    Number of boundary faces = 5000
--> FOAM Warning : 
    From void* Foam::dlLibraryTable::openLibrary(const Foam::fileName&, bool)
    in file db/dynamicLibrary/dlLibraryTable/dlLibraryTable.C at line 188
    Could not load "libpetscFoam.so"
libpetscFoam.so: cannot open shared object file: No such file or directory

Processor 45
    Number of cells = 1000000
    Number of points = 1035351
    Number of faces shared with processor 13 = 5000
    Number of faces shared with processor 37 = 10000
    Number of faces shared with processor 44 = 20000
    Number of faces shared with processor 46 = 20000
    Number of faces shared with processor 53 = 10000
    Number of processor patches = 5
    Number of processor faces = 65000
    Number of boundary faces = 5000
--> FOAM Warning : 
    From void* Foam::dlLibraryTable::openLibrary(const Foam::fileName&, bool)
    in file db/dynamicLibrary/dlLibraryTable/dlLibraryTable.C at line 188
    Could not load "libpetscFoam.so"
libpetscFoam.so: cannot open shared object file: No such file or directory

Processor 46
    Number of cells = 1000000
    Number of points = 1035351
    Number of faces shared with processor 14 = 5000
    Number of faces shared with processor 38 = 10000
    Number of faces shared with processor 45 = 20000
    Number of faces shared with processor 47 = 20000
    Number of faces shared with processor 54 = 10000
    Number of processor patches = 5
    Number of processor faces = 65000
    Number of boundary faces = 5000
--> FOAM Warning : 
    From void* Foam::dlLibraryTable::openLibrary(const Foam::fileName&, bool)
    in file db/dynamicLibrary/dlLibraryTable/dlLibraryTable.C at line 188
    Could not load "libpetscFoam.so"
libpetscFoam.so: cannot open shared object file: No such file or directory

Processor 47
    Number of cells = 1000000
    Number of points = 1035351
    Number of faces shared with processor 15 = 5000
    Number of faces shared with processor 39 = 10000
    Number of faces shared with processor 46 = 20000
    Number of faces shared with processor 55 = 10000
    Number of processor patches = 4
    Number of processor faces = 45000
    Number of boundary faces = 25000
--> FOAM Warning : 
    From void* Foam::dlLibraryTable::openLibrary(const Foam::fileName&, bool)
    in file db/dynamicLibrary/dlLibraryTable/dlLibraryTable.C at line 188
    Could not load "libpetscFoam.so"
libpetscFoam.so: cannot open shared object file: No such file or directory

Processor 48
    Number of cells = 1000000
    Number of points = 1035351
    Number of faces shared with processor 16 = 5000
    Number of faces shared with processor 40 = 10000
    Number of faces shared with processor 49 = 20000
    Number of faces shared with processor 56 = 10000
    Number of processor patches = 4
    Number of processor faces = 45000
    Number of boundary faces = 25000
--> FOAM Warning : 
    From void* Foam::dlLibraryTable::openLibrary(const Foam::fileName&, bool)
    in file db/dynamicLibrary/dlLibraryTable/dlLibraryTable.C at line 188
    Could not load "libpetscFoam.so"
libpetscFoam.so: cannot open shared object file: No such file or directory

Processor 49
    Number of cells = 1000000
    Number of points = 1035351
    Number of faces shared with processor 17 = 5000
    Number of faces shared with processor 41 = 10000
    Number of faces shared with processor 48 = 20000
    Number of faces shared with processor 50 = 20000
    Number of faces shared with processor 57 = 10000
    Number of processor patches = 5
    Number of processor faces = 65000
    Number of boundary faces = 5000
--> FOAM Warning : 
    From void* Foam::dlLibraryTable::openLibrary(const Foam::fileName&, bool)
    in file db/dynamicLibrary/dlLibraryTable/dlLibraryTable.C at line 188
    Could not load "libpetscFoam.so"
libpetscFoam.so: cannot open shared object file: No such file or directory

Processor 50
    Number of cells = 1000000
    Number of points = 1035351
    Number of faces shared with processor 18 = 5000
    Number of faces shared with processor 42 = 10000
    Number of faces shared with processor 49 = 20000
    Number of faces shared with processor 51 = 20000
    Number of faces shared with processor 58 = 10000
    Number of processor patches = 5
    Number of processor faces = 65000
    Number of boundary faces = 5000
--> FOAM Warning : 
    From void* Foam::dlLibraryTable::openLibrary(const Foam::fileName&, bool)
    in file db/dynamicLibrary/dlLibraryTable/dlLibraryTable.C at line 188
    Could not load "libpetscFoam.so"
libpetscFoam.so: cannot open shared object file: No such file or directory

Processor 51
    Number of cells = 1000000
    Number of points = 1035351
    Number of faces shared with processor 19 = 5000
    Number of faces shared with processor 43 = 10000
    Number of faces shared with processor 50 = 20000
    Number of faces shared with processor 52 = 20000
    Number of faces shared with processor 59 = 10000
    Number of processor patches = 5
    Number of processor faces = 65000
    Number of boundary faces = 5000
--> FOAM Warning : 
    From void* Foam::dlLibraryTable::openLibrary(const Foam::fileName&, bool)
    in file db/dynamicLibrary/dlLibraryTable/dlLibraryTable.C at line 188
    Could not load "libpetscFoam.so"
libpetscFoam.so: cannot open shared object file: No such file or directory

Processor 52
    Number of cells = 1000000
    Number of points = 1035351
    Number of faces shared with processor 20 = 5000
    Number of faces shared with processor 44 = 10000
    Number of faces shared with processor 51 = 20000
    Number of faces shared with processor 53 = 20000
    Number of faces shared with processor 60 = 10000
    Number of processor patches = 5
    Number of processor faces = 65000
    Number of boundary faces = 5000
--> FOAM Warning : 
    From void* Foam::dlLibraryTable::openLibrary(const Foam::fileName&, bool)
    in file db/dynamicLibrary/dlLibraryTable/dlLibraryTable.C at line 188
    Could not load "libpetscFoam.so"
libpetscFoam.so: cannot open shared object file: No such file or directory

Processor 53
    Number of cells = 1000000
    Number of points = 1035351
    Number of faces shared with processor 21 = 5000
    Number of faces shared with processor 45 = 10000
    Number of faces shared with processor 52 = 20000
    Number of faces shared with processor 54 = 20000
    Number of faces shared with processor 61 = 10000
    Number of processor patches = 5
    Number of processor faces = 65000
    Number of boundary faces = 5000
--> FOAM Warning : 
    From void* Foam::dlLibraryTable::openLibrary(const Foam::fileName&, bool)
    in file db/dynamicLibrary/dlLibraryTable/dlLibraryTable.C at line 188
    Could not load "libpetscFoam.so"
libpetscFoam.so: cannot open shared object file: No such file or directory

Processor 54
    Number of cells = 1000000
    Number of points = 1035351
    Number of faces shared with processor 22 = 5000
    Number of faces shared with processor 46 = 10000
    Number of faces shared with processor 53 = 20000
    Number of faces shared with processor 55 = 20000
    Number of faces shared with processor 62 = 10000
    Number of processor patches = 5
    Number of processor faces = 65000
    Number of boundary faces = 5000
--> FOAM Warning : 
    From void* Foam::dlLibraryTable::openLibrary(const Foam::fileName&, bool)
    in file db/dynamicLibrary/dlLibraryTable/dlLibraryTable.C at line 188
    Could not load "libpetscFoam.so"
libpetscFoam.so: cannot open shared object file: No such file or directory

Processor 55
    Number of cells = 1000000
    Number of points = 1035351
    Number of faces shared with processor 23 = 5000
    Number of faces shared with processor 47 = 10000
    Number of faces shared with processor 54 = 20000
    Number of faces shared with processor 63 = 10000
    Number of processor patches = 4
    Number of processor faces = 45000
    Number of boundary faces = 25000
--> FOAM Warning : 
    From void* Foam::dlLibraryTable::openLibrary(const Foam::fileName&, bool)
    in file db/dynamicLibrary/dlLibraryTable/dlLibraryTable.C at line 188
    Could not load "libpetscFoam.so"
libpetscFoam.so: cannot open shared object file: No such file or directory

Processor 56
    Number of cells = 998125
    Number of points = 1033451
    Number of faces shared with processor 24 = 5075
    Number of faces shared with processor 48 = 10000
    Number of faces shared with processor 57 = 19975
    Number of processor patches = 3
    Number of processor faces = 35050
    Number of boundary faces = 34900
--> FOAM Warning : 
    From void* Foam::dlLibraryTable::openLibrary(const Foam::fileName&, bool)
    in file db/dynamicLibrary/dlLibraryTable/dlLibraryTable.C at line 188
    Could not load "libpetscFoam.so"
libpetscFoam.so: cannot open shared object file: No such file or directory

Processor 57
    Number of cells = 999375
    Number of points = 1034726
    Number of faces shared with processor 25 = 5074
    Number of faces shared with processor 49 = 10000
    Number of faces shared with processor 56 = 19975
    Number of faces shared with processor 58 = 20000
    Number of processor patches = 4
    Number of processor faces = 55049
    Number of boundary faces = 14951
--> FOAM Warning : 
    From void* Foam::dlLibraryTable::openLibrary(const Foam::fileName&, bool)
    in file db/dynamicLibrary/dlLibraryTable/dlLibraryTable.C at line 188
    Could not load "libpetscFoam.so"
libpetscFoam.so: cannot open shared object file: No such file or directory

Processor 58
    Number of cells = 1000000
    Number of points = 1035351
    Number of faces shared with processor 26 = 5000
    Number of faces shared with processor 50 = 10000
    Number of faces shared with processor 57 = 20000
    Number of faces shared with processor 59 = 20000
    Number of processor patches = 4
    Number of processor faces = 55000
    Number of boundary faces = 15000
--> FOAM Warning : 
    From void* Foam::dlLibraryTable::openLibrary(const Foam::fileName&, bool)
    in file db/dynamicLibrary/dlLibraryTable/dlLibraryTable.C at line 188
    Could not load "libpetscFoam.so"
libpetscFoam.so: cannot open shared object file: No such file or directory

Processor 59
    Number of cells = 1000000
    Number of points = 1035351
    Number of faces shared with processor 27 = 5000
    Number of faces shared with processor 51 = 10000
    Number of faces shared with processor 58 = 20000
    Number of faces shared with processor 60 = 20000
    Number of processor patches = 4
    Number of processor faces = 55000
    Number of boundary faces = 15000
--> FOAM Warning : 
    From void* Foam::dlLibraryTable::openLibrary(const Foam::fileName&, bool)
    in file db/dynamicLibrary/dlLibraryTable/dlLibraryTable.C at line 188
    Could not load "libpetscFoam.so"
libpetscFoam.so: cannot open shared object file: No such file or directory

Processor 60
    Number of cells = 1000000
    Number of points = 1035351
    Number of faces shared with processor 28 = 5000
    Number of faces shared with processor 52 = 10000
    Number of faces shared with processor 59 = 20000
    Number of faces shared with processor 61 = 20000
    Number of processor patches = 4
    Number of processor faces = 55000
    Number of boundary faces = 15000
--> FOAM Warning : 
    From void* Foam::dlLibraryTable::openLibrary(const Foam::fileName&, bool)
    in file db/dynamicLibrary/dlLibraryTable/dlLibraryTable.C at line 188
    Could not load "libpetscFoam.so"
libpetscFoam.so: cannot open shared object file: No such file or directory

Processor 61
    Number of cells = 1000000
    Number of points = 1035351
    Number of faces shared with processor 29 = 5000
    Number of faces shared with processor 53 = 10000
    Number of faces shared with processor 60 = 20000
    Number of faces shared with processor 62 = 20000
    Number of processor patches = 4
    Number of processor faces = 55000
    Number of boundary faces = 15000
--> FOAM Warning : 
    From void* Foam::dlLibraryTable::openLibrary(const Foam::fileName&, bool)
    in file db/dynamicLibrary/dlLibraryTable/dlLibraryTable.C at line 188
    Could not load "libpetscFoam.so"
libpetscFoam.so: cannot open shared object file: No such file or directory

Processor 62
    Number of cells = 1000000
    Number of points = 1035351
    Number of faces shared with processor 30 = 5000
    Number of faces shared with processor 54 = 10000
    Number of faces shared with processor 61 = 20000
    Number of faces shared with processor 63 = 20000
    Number of processor patches = 4
    Number of processor faces = 55000
    Number of boundary faces = 15000
--> FOAM Warning : 
    From void* Foam::dlLibraryTable::openLibrary(const Foam::fileName&, bool)
    in file db/dynamicLibrary/dlLibraryTable/dlLibraryTable.C at line 188
    Could not load "libpetscFoam.so"
libpetscFoam.so: cannot open shared object file: No such file or directory

Processor 63
    Number of cells = 1000000
    Number of points = 1035351
    Number of faces shared with processor 31 = 5000
    Number of faces shared with processor 55 = 10000
    Number of faces shared with processor 62 = 20000
    Number of processor patches = 3
    Number of processor faces = 35000
    Number of boundary faces = 35000

Number of processor faces = 1760298
Max number of cells = 1001875 (0.1875% above average 1e+06)
Max number of processor patches = 5 (17.6471% above average 4.25)
Max number of faces between processors = 65000 (18.1618% above average 55009.3)

Time = 0

Processor 0: field transfer
--> FOAM Warning : 
    From void* Foam::dlLibraryTable::openLibrary(const Foam::fileName&, bool)
    in file db/dynamicLibrary/dlLibraryTable/dlLibraryTable.C at line 188
    Could not load "libpetscFoam.so"
libpetscFoam.so: cannot open shared object file: No such file or directory
Processor 1: field transfer
--> FOAM Warning : 
    From void* Foam::dlLibraryTable::openLibrary(const Foam::fileName&, bool)
    in file db/dynamicLibrary/dlLibraryTable/dlLibraryTable.C at line 188
    Could not load "libpetscFoam.so"
libpetscFoam.so: cannot open shared object file: No such file or directory
Processor 2: field transfer
--> FOAM Warning : 
    From void* Foam::dlLibraryTable::openLibrary(const Foam::fileName&, bool)
    in file db/dynamicLibrary/dlLibraryTable/dlLibraryTable.C at line 188
    Could not load "libpetscFoam.so"
libpetscFoam.so: cannot open shared object file: No such file or directory
Processor 3: field transfer
--> FOAM Warning : 
    From void* Foam::dlLibraryTable::openLibrary(const Foam::fileName&, bool)
    in file db/dynamicLibrary/dlLibraryTable/dlLibraryTable.C at line 188
    Could not load "libpetscFoam.so"
libpetscFoam.so: cannot open shared object file: No such file or directory
Processor 4: field transfer
--> FOAM Warning : 
    From void* Foam::dlLibraryTable::openLibrary(const Foam::fileName&, bool)
    in file db/dynamicLibrary/dlLibraryTable/dlLibraryTable.C at line 188
    Could not load "libpetscFoam.so"
libpetscFoam.so: cannot open shared object file: No such file or directory
Processor 5: field transfer
--> FOAM Warning : 
    From void* Foam::dlLibraryTable::openLibrary(const Foam::fileName&, bool)
    in file db/dynamicLibrary/dlLibraryTable/dlLibraryTable.C at line 188
    Could not load "libpetscFoam.so"
libpetscFoam.so: cannot open shared object file: No such file or directory
Processor 6: field transfer
--> FOAM Warning : 
    From void* Foam::dlLibraryTable::openLibrary(const Foam::fileName&, bool)
    in file db/dynamicLibrary/dlLibraryTable/dlLibraryTable.C at line 188
    Could not load "libpetscFoam.so"
libpetscFoam.so: cannot open shared object file: No such file or directory
Processor 7: field transfer
--> FOAM Warning : 
    From void* Foam::dlLibraryTable::openLibrary(const Foam::fileName&, bool)
    in file db/dynamicLibrary/dlLibraryTable/dlLibraryTable.C at line 188
    Could not load "libpetscFoam.so"
libpetscFoam.so: cannot open shared object file: No such file or directory
Processor 8: field transfer
--> FOAM Warning : 
    From void* Foam::dlLibraryTable::openLibrary(const Foam::fileName&, bool)
    in file db/dynamicLibrary/dlLibraryTable/dlLibraryTable.C at line 188
    Could not load "libpetscFoam.so"
libpetscFoam.so: cannot open shared object file: No such file or directory
Processor 9: field transfer
--> FOAM Warning : 
    From void* Foam::dlLibraryTable::openLibrary(const Foam::fileName&, bool)
    in file db/dynamicLibrary/dlLibraryTable/dlLibraryTable.C at line 188
    Could not load "libpetscFoam.so"
libpetscFoam.so: cannot open shared object file: No such file or directory
Processor 10: field transfer
--> FOAM Warning : 
    From void* Foam::dlLibraryTable::openLibrary(const Foam::fileName&, bool)
    in file db/dynamicLibrary/dlLibraryTable/dlLibraryTable.C at line 188
    Could not load "libpetscFoam.so"
libpetscFoam.so: cannot open shared object file: No such file or directory
Processor 11: field transfer
--> FOAM Warning : 
    From void* Foam::dlLibraryTable::openLibrary(const Foam::fileName&, bool)
    in file db/dynamicLibrary/dlLibraryTable/dlLibraryTable.C at line 188
    Could not load "libpetscFoam.so"
libpetscFoam.so: cannot open shared object file: No such file or directory
Processor 12: field transfer
--> FOAM Warning : 
    From void* Foam::dlLibraryTable::openLibrary(const Foam::fileName&, bool)
    in file db/dynamicLibrary/dlLibraryTable/dlLibraryTable.C at line 188
    Could not load "libpetscFoam.so"
libpetscFoam.so: cannot open shared object file: No such file or directory
Processor 13: field transfer
--> FOAM Warning : 
    From void* Foam::dlLibraryTable::openLibrary(const Foam::fileName&, bool)
    in file db/dynamicLibrary/dlLibraryTable/dlLibraryTable.C at line 188
    Could not load "libpetscFoam.so"
libpetscFoam.so: cannot open shared object file: No such file or directory
Processor 14: field transfer
--> FOAM Warning : 
    From void* Foam::dlLibraryTable::openLibrary(const Foam::fileName&, bool)
    in file db/dynamicLibrary/dlLibraryTable/dlLibraryTable.C at line 188
    Could not load "libpetscFoam.so"
libpetscFoam.so: cannot open shared object file: No such file or directory
Processor 15: field transfer
--> FOAM Warning : 
    From void* Foam::dlLibraryTable::openLibrary(const Foam::fileName&, bool)
    in file db/dynamicLibrary/dlLibraryTable/dlLibraryTable.C at line 188
    Could not load "libpetscFoam.so"
libpetscFoam.so: cannot open shared object file: No such file or directory
Processor 16: field transfer
--> FOAM Warning : 
    From void* Foam::dlLibraryTable::openLibrary(const Foam::fileName&, bool)
    in file db/dynamicLibrary/dlLibraryTable/dlLibraryTable.C at line 188
    Could not load "libpetscFoam.so"
libpetscFoam.so: cannot open shared object file: No such file or directory
Processor 17: field transfer
--> FOAM Warning : 
    From void* Foam::dlLibraryTable::openLibrary(const Foam::fileName&, bool)
    in file db/dynamicLibrary/dlLibraryTable/dlLibraryTable.C at line 188
    Could not load "libpetscFoam.so"
libpetscFoam.so: cannot open shared object file: No such file or directory
Processor 18: field transfer
--> FOAM Warning : 
    From void* Foam::dlLibraryTable::openLibrary(const Foam::fileName&, bool)
    in file db/dynamicLibrary/dlLibraryTable/dlLibraryTable.C at line 188
    Could not load "libpetscFoam.so"
libpetscFoam.so: cannot open shared object file: No such file or directory
Processor 19: field transfer
--> FOAM Warning : 
    From void* Foam::dlLibraryTable::openLibrary(const Foam::fileName&, bool)
    in file db/dynamicLibrary/dlLibraryTable/dlLibraryTable.C at line 188
    Could not load "libpetscFoam.so"
libpetscFoam.so: cannot open shared object file: No such file or directory
Processor 20: field transfer
--> FOAM Warning : 
    From void* Foam::dlLibraryTable::openLibrary(const Foam::fileName&, bool)
    in file db/dynamicLibrary/dlLibraryTable/dlLibraryTable.C at line 188
    Could not load "libpetscFoam.so"
libpetscFoam.so: cannot open shared object file: No such file or directory
Processor 21: field transfer
--> FOAM Warning : 
    From void* Foam::dlLibraryTable::openLibrary(const Foam::fileName&, bool)
    in file db/dynamicLibrary/dlLibraryTable/dlLibraryTable.C at line 188
    Could not load "libpetscFoam.so"
libpetscFoam.so: cannot open shared object file: No such file or directory
Processor 22: field transfer
--> FOAM Warning : 
    From void* Foam::dlLibraryTable::openLibrary(const Foam::fileName&, bool)
    in file db/dynamicLibrary/dlLibraryTable/dlLibraryTable.C at line 188
    Could not load "libpetscFoam.so"
libpetscFoam.so: cannot open shared object file: No such file or directory
Processor 23: field transfer
--> FOAM Warning : 
    From void* Foam::dlLibraryTable::openLibrary(const Foam::fileName&, bool)
    in file db/dynamicLibrary/dlLibraryTable/dlLibraryTable.C at line 188
    Could not load "libpetscFoam.so"
libpetscFoam.so: cannot open shared object file: No such file or directory
Processor 24: field transfer
--> FOAM Warning : 
    From void* Foam::dlLibraryTable::openLibrary(const Foam::fileName&, bool)
    in file db/dynamicLibrary/dlLibraryTable/dlLibraryTable.C at line 188
    Could not load "libpetscFoam.so"
libpetscFoam.so: cannot open shared object file: No such file or directory
Processor 25: field transfer
--> FOAM Warning : 
    From void* Foam::dlLibraryTable::openLibrary(const Foam::fileName&, bool)
    in file db/dynamicLibrary/dlLibraryTable/dlLibraryTable.C at line 188
    Could not load "libpetscFoam.so"
libpetscFoam.so: cannot open shared object file: No such file or directory
Processor 26: field transfer
--> FOAM Warning : 
    From void* Foam::dlLibraryTable::openLibrary(const Foam::fileName&, bool)
    in file db/dynamicLibrary/dlLibraryTable/dlLibraryTable.C at line 188
    Could not load "libpetscFoam.so"
libpetscFoam.so: cannot open shared object file: No such file or directory
Processor 27: field transfer
--> FOAM Warning : 
    From void* Foam::dlLibraryTable::openLibrary(const Foam::fileName&, bool)
    in file db/dynamicLibrary/dlLibraryTable/dlLibraryTable.C at line 188
    Could not load "libpetscFoam.so"
libpetscFoam.so: cannot open shared object file: No such file or directory
Processor 28: field transfer
--> FOAM Warning : 
    From void* Foam::dlLibraryTable::openLibrary(const Foam::fileName&, bool)
    in file db/dynamicLibrary/dlLibraryTable/dlLibraryTable.C at line 188
    Could not load "libpetscFoam.so"
libpetscFoam.so: cannot open shared object file: No such file or directory
Processor 29: field transfer
--> FOAM Warning : 
    From void* Foam::dlLibraryTable::openLibrary(const Foam::fileName&, bool)
    in file db/dynamicLibrary/dlLibraryTable/dlLibraryTable.C at line 188
    Could not load "libpetscFoam.so"
libpetscFoam.so: cannot open shared object file: No such file or directory
Processor 30: field transfer
--> FOAM Warning : 
    From void* Foam::dlLibraryTable::openLibrary(const Foam::fileName&, bool)
    in file db/dynamicLibrary/dlLibraryTable/dlLibraryTable.C at line 188
    Could not load "libpetscFoam.so"
libpetscFoam.so: cannot open shared object file: No such file or directory
Processor 31: field transfer
--> FOAM Warning : 
    From void* Foam::dlLibraryTable::openLibrary(const Foam::fileName&, bool)
    in file db/dynamicLibrary/dlLibraryTable/dlLibraryTable.C at line 188
    Could not load "libpetscFoam.so"
libpetscFoam.so: cannot open shared object file: No such file or directory
Processor 32: field transfer
--> FOAM Warning : 
    From void* Foam::dlLibraryTable::openLibrary(const Foam::fileName&, bool)
    in file db/dynamicLibrary/dlLibraryTable/dlLibraryTable.C at line 188
    Could not load "libpetscFoam.so"
libpetscFoam.so: cannot open shared object file: No such file or directory
Processor 33: field transfer
--> FOAM Warning : 
    From void* Foam::dlLibraryTable::openLibrary(const Foam::fileName&, bool)
    in file db/dynamicLibrary/dlLibraryTable/dlLibraryTable.C at line 188
    Could not load "libpetscFoam.so"
libpetscFoam.so: cannot open shared object file: No such file or directory
Processor 34: field transfer
--> FOAM Warning : 
    From void* Foam::dlLibraryTable::openLibrary(const Foam::fileName&, bool)
    in file db/dynamicLibrary/dlLibraryTable/dlLibraryTable.C at line 188
    Could not load "libpetscFoam.so"
libpetscFoam.so: cannot open shared object file: No such file or directory
Processor 35: field transfer
--> FOAM Warning : 
    From void* Foam::dlLibraryTable::openLibrary(const Foam::fileName&, bool)
    in file db/dynamicLibrary/dlLibraryTable/dlLibraryTable.C at line 188
    Could not load "libpetscFoam.so"
libpetscFoam.so: cannot open shared object file: No such file or directory
Processor 36: field transfer
--> FOAM Warning : 
    From void* Foam::dlLibraryTable::openLibrary(const Foam::fileName&, bool)
    in file db/dynamicLibrary/dlLibraryTable/dlLibraryTable.C at line 188
    Could not load "libpetscFoam.so"
libpetscFoam.so: cannot open shared object file: No such file or directory
Processor 37: field transfer
--> FOAM Warning : 
    From void* Foam::dlLibraryTable::openLibrary(const Foam::fileName&, bool)
    in file db/dynamicLibrary/dlLibraryTable/dlLibraryTable.C at line 188
    Could not load "libpetscFoam.so"
libpetscFoam.so: cannot open shared object file: No such file or directory
Processor 38: field transfer
--> FOAM Warning : 
    From void* Foam::dlLibraryTable::openLibrary(const Foam::fileName&, bool)
    in file db/dynamicLibrary/dlLibraryTable/dlLibraryTable.C at line 188
    Could not load "libpetscFoam.so"
libpetscFoam.so: cannot open shared object file: No such file or directory
Processor 39: field transfer
--> FOAM Warning : 
    From void* Foam::dlLibraryTable::openLibrary(const Foam::fileName&, bool)
    in file db/dynamicLibrary/dlLibraryTable/dlLibraryTable.C at line 188
    Could not load "libpetscFoam.so"
libpetscFoam.so: cannot open shared object file: No such file or directory
Processor 40: field transfer
--> FOAM Warning : 
    From void* Foam::dlLibraryTable::openLibrary(const Foam::fileName&, bool)
    in file db/dynamicLibrary/dlLibraryTable/dlLibraryTable.C at line 188
    Could not load "libpetscFoam.so"
libpetscFoam.so: cannot open shared object file: No such file or directory
Processor 41: field transfer
--> FOAM Warning : 
    From void* Foam::dlLibraryTable::openLibrary(const Foam::fileName&, bool)
    in file db/dynamicLibrary/dlLibraryTable/dlLibraryTable.C at line 188
    Could not load "libpetscFoam.so"
libpetscFoam.so: cannot open shared object file: No such file or directory
Processor 42: field transfer
--> FOAM Warning : 
    From void* Foam::dlLibraryTable::openLibrary(const Foam::fileName&, bool)
    in file db/dynamicLibrary/dlLibraryTable/dlLibraryTable.C at line 188
    Could not load "libpetscFoam.so"
libpetscFoam.so: cannot open shared object file: No such file or directory
Processor 43: field transfer
--> FOAM Warning : 
    From void* Foam::dlLibraryTable::openLibrary(const Foam::fileName&, bool)
    in file db/dynamicLibrary/dlLibraryTable/dlLibraryTable.C at line 188
    Could not load "libpetscFoam.so"
libpetscFoam.so: cannot open shared object file: No such file or directory
Processor 44: field transfer
--> FOAM Warning : 
    From void* Foam::dlLibraryTable::openLibrary(const Foam::fileName&, bool)
    in file db/dynamicLibrary/dlLibraryTable/dlLibraryTable.C at line 188
    Could not load "libpetscFoam.so"
libpetscFoam.so: cannot open shared object file: No such file or directory
Processor 45: field transfer
--> FOAM Warning : 
    From void* Foam::dlLibraryTable::openLibrary(const Foam::fileName&, bool)
    in file db/dynamicLibrary/dlLibraryTable/dlLibraryTable.C at line 188
    Could not load "libpetscFoam.so"
libpetscFoam.so: cannot open shared object file: No such file or directory
Processor 46: field transfer
--> FOAM Warning : 
    From void* Foam::dlLibraryTable::openLibrary(const Foam::fileName&, bool)
    in file db/dynamicLibrary/dlLibraryTable/dlLibraryTable.C at line 188
    Could not load "libpetscFoam.so"
libpetscFoam.so: cannot open shared object file: No such file or directory
Processor 47: field transfer
--> FOAM Warning : 
    From void* Foam::dlLibraryTable::openLibrary(const Foam::fileName&, bool)
    in file db/dynamicLibrary/dlLibraryTable/dlLibraryTable.C at line 188
    Could not load "libpetscFoam.so"
libpetscFoam.so: cannot open shared object file: No such file or directory
Processor 48: field transfer
--> FOAM Warning : 
    From void* Foam::dlLibraryTable::openLibrary(const Foam::fileName&, bool)
    in file db/dynamicLibrary/dlLibraryTable/dlLibraryTable.C at line 188
    Could not load "libpetscFoam.so"
libpetscFoam.so: cannot open shared object file: No such file or directory
Processor 49: field transfer
--> FOAM Warning : 
    From void* Foam::dlLibraryTable::openLibrary(const Foam::fileName&, bool)
    in file db/dynamicLibrary/dlLibraryTable/dlLibraryTable.C at line 188
    Could not load "libpetscFoam.so"
libpetscFoam.so: cannot open shared object file: No such file or directory
Processor 50: field transfer
--> FOAM Warning : 
    From void* Foam::dlLibraryTable::openLibrary(const Foam::fileName&, bool)
    in file db/dynamicLibrary/dlLibraryTable/dlLibraryTable.C at line 188
    Could not load "libpetscFoam.so"
libpetscFoam.so: cannot open shared object file: No such file or directory
Processor 51: field transfer
--> FOAM Warning : 
    From void* Foam::dlLibraryTable::openLibrary(const Foam::fileName&, bool)
    in file db/dynamicLibrary/dlLibraryTable/dlLibraryTable.C at line 188
    Could not load "libpetscFoam.so"
libpetscFoam.so: cannot open shared object file: No such file or directory
Processor 52: field transfer
--> FOAM Warning : 
    From void* Foam::dlLibraryTable::openLibrary(const Foam::fileName&, bool)
    in file db/dynamicLibrary/dlLibraryTable/dlLibraryTable.C at line 188
    Could not load "libpetscFoam.so"
libpetscFoam.so: cannot open shared object file: No such file or directory
Processor 53: field transfer
--> FOAM Warning : 
    From void* Foam::dlLibraryTable::openLibrary(const Foam::fileName&, bool)
    in file db/dynamicLibrary/dlLibraryTable/dlLibraryTable.C at line 188
    Could not load "libpetscFoam.so"
libpetscFoam.so: cannot open shared object file: No such file or directory
Processor 54: field transfer
--> FOAM Warning : 
    From void* Foam::dlLibraryTable::openLibrary(const Foam::fileName&, bool)
    in file db/dynamicLibrary/dlLibraryTable/dlLibraryTable.C at line 188
    Could not load "libpetscFoam.so"
libpetscFoam.so: cannot open shared object file: No such file or directory
Processor 55: field transfer
--> FOAM Warning : 
    From void* Foam::dlLibraryTable::openLibrary(const Foam::fileName&, bool)
    in file db/dynamicLibrary/dlLibraryTable/dlLibraryTable.C at line 188
    Could not load "libpetscFoam.so"
libpetscFoam.so: cannot open shared object file: No such file or directory
Processor 56: field transfer
--> FOAM Warning : 
    From void* Foam::dlLibraryTable::openLibrary(const Foam::fileName&, bool)
    in file db/dynamicLibrary/dlLibraryTable/dlLibraryTable.C at line 188
    Could not load "libpetscFoam.so"
libpetscFoam.so: cannot open shared object file: No such file or directory
Processor 57: field transfer
--> FOAM Warning : 
    From void* Foam::dlLibraryTable::openLibrary(const Foam::fileName&, bool)
    in file db/dynamicLibrary/dlLibraryTable/dlLibraryTable.C at line 188
    Could not load "libpetscFoam.so"
libpetscFoam.so: cannot open shared object file: No such file or directory
Processor 58: field transfer
--> FOAM Warning : 
    From void* Foam::dlLibraryTable::openLibrary(const Foam::fileName&, bool)
    in file db/dynamicLibrary/dlLibraryTable/dlLibraryTable.C at line 188
    Could not load "libpetscFoam.so"
libpetscFoam.so: cannot open shared object file: No such file or directory
Processor 59: field transfer
--> FOAM Warning : 
    From void* Foam::dlLibraryTable::openLibrary(const Foam::fileName&, bool)
    in file db/dynamicLibrary/dlLibraryTable/dlLibraryTable.C at line 188
    Could not load "libpetscFoam.so"
libpetscFoam.so: cannot open shared object file: No such file or directory
Processor 60: field transfer
--> FOAM Warning : 
    From void* Foam::dlLibraryTable::openLibrary(const Foam::fileName&, bool)
    in file db/dynamicLibrary/dlLibraryTable/dlLibraryTable.C at line 188
    Could not load "libpetscFoam.so"
libpetscFoam.so: cannot open shared object file: No such file or directory
Processor 61: field transfer
--> FOAM Warning : 
    From void* Foam::dlLibraryTable::openLibrary(const Foam::fileName&, bool)
    in file db/dynamicLibrary/dlLibraryTable/dlLibraryTable.C at line 188
    Could not load "libpetscFoam.so"
libpetscFoam.so: cannot open shared object file: No such file or directory
Processor 62: field transfer
--> FOAM Warning : 
    From void* Foam::dlLibraryTable::openLibrary(const Foam::fileName&, bool)
    in file db/dynamicLibrary/dlLibraryTable/dlLibraryTable.C at line 188
    Could not load "libpetscFoam.so"
libpetscFoam.so: cannot open shared object file: No such file or directory
Processor 63: field transfer
--> FOAM Warning : 
    From void* Foam::dlLibraryTable::openLibrary(const Foam::fileName&, bool)
    in file db/dynamicLibrary/dlLibraryTable/dlLibraryTable.C at line 188
    Could not load "libpetscFoam.so"
libpetscFoam.so: cannot open shared object file: No such file or directory

End

