/*---------------------------------------------------------------------------*\
| =========                 |                                                 |
| \\      /  F ield         | OpenFOAM: The Open Source CFD Toolbox           |
|  \\    /   O peration     | Version:  2306                                  |
|   \\  /    A nd           | Website:  www.openfoam.com                      |
|    \\/     M anipulation  |                                                 |
\*---------------------------------------------------------------------------*/
Build  : c423ebec-20231012 OPENFOAM=2306 version=v2306
Arch   : "LSB;label=32;scalar=64"
Exec   : simpleFoam -parallel -case /hkfs/work/workspace/scratch/eq4036-windsorbody_setup/workspace/458d4332b9058d644b3349c8d560902f/case
Date   : Feb 16 2024
Time   : 20:32:37
Host   : hkn0525.localdomain
PID    : 402890
I/O    : uncollated
Case   : /hkfs/work/workspace/scratch/eq4036-windsorbody_setup/workspace/458d4332b9058d644b3349c8d560902f/case
nProcs : 16
Hosts  :
(
    (hkn0525.localdomain 8)
    (hkn0526.localdomain 8)
)
Pstream initialized with:
    floatTransfer      : false
    nProcsSimpleSum    : 0
    nonBlockingExchange: 0 (tuning: 0)
    exchange algorithm : -1
    commsType          : nonBlocking
    polling iterations : 0
trapFpe: Floating point exception trapping enabled (FOAM_SIGFPE).
fileModificationChecking : Monitoring run-time modified files using timeStampMaster (fileModificationSkew 5, maxFileModificationPolls 20)
allowSystemOperations : Allowing user-supplied system call operations

// * * * * * * * * * * * * * * * * * * * * * * * * * * * * * * * * * * * * * //
Create time

--> FOAM Warning : 
    From void* Foam::dlLibraryTable::openLibrary(const Foam::fileName&, bool)
    in file db/dynamicLibrary/dlLibraryTable/dlLibraryTable.C at line 188
    Could not load "libpetscFoam.so"
libpetscFoam.so: cannot open shared object file: No such file or directory
Create mesh for time = 0


SIMPLE: convergence criteria
    field p	 tolerance 1e-08
    field U	 tolerance 1e-08
    field k	 tolerance 1e-08
    field omega	 tolerance 1e-08
    field nuTilda	 tolerance 1e-08

Reading field p

Reading field U

Reading/calculating face flux field phi

Selecting incompressible transport model Newtonian
Selecting turbulence model type RAS
Selecting RAS turbulence model SpalartAllmaras
Selecting patchDistMethod meshWave
ft2 term: inactive
RAS
{
    RASModel        SpalartAllmaras;
    turbulence      on;
    printCoeffs     on;
    sigmaNut        0.66666;
    kappa           0.41;
    Cb1             0.1355;
    Cb2             0.622;
    Cw2             0.3;
    Cw3             2;
    Cv1             7.1;
    Cs              0.3;
    ck              0.07000000000000001;
    ft2             false;
    Ct3             1.2;
    Ct4             0.5;
}

No MRF models present

Creating finite volume options from "system/fvOptions"

Selecting finite volume options type velocityDampingConstraint
    Source: velocityDamping
    - selecting all cells
    - selected 12614272 cell(s) with volume 55.65166103214617

Starting time loop

--> FOAM Warning : 
    From bool Foam::functionObjectList::read()
    in file db/functionObjects/functionObjectList/functionObjectList.C at line 1035
    Reading "system/controlDict" at line 2 to 41
    Entry 'lref' is not a dictionary
--> FOAM Warning : 
    From bool Foam::functionObjectList::read()
    in file db/functionObjects/functionObjectList/functionObjectList.C at line 1035
    Reading "system/controlDict" at line 2 to 41
    Entry 'Aref' is not a dictionary
--> FOAM Warning : 
    From bool Foam::functionObjectList::read()
    in file db/functionObjects/functionObjectList/functionObjectList.C at line 1035
    Reading "system/controlDict" at line 2 to 41
    Entry 'yawAngle' is not a dictionary
--> FOAM Warning : 
    From bool Foam::functionObjectList::read()
    in file db/functionObjects/functionObjectList/functionObjectList.C at line 1035
    Reading "system/controlDict" at line 2 to 41
    Entry 'lDomain' is not a dictionary
--> FOAM Warning : 
    From bool Foam::functionObjectList::read()
    in file db/functionObjects/functionObjectList/functionObjectList.C at line 1035
    Reading "system/controlDict" at line 2 to 41
    Entry 'bDomain' is not a dictionary
--> FOAM Warning : 
    From bool Foam::functionObjectList::read()
    in file db/functionObjects/functionObjectList/functionObjectList.C at line 1035
    Reading "system/controlDict" at line 2 to 41
    Entry 'hDomain' is not a dictionary
--> FOAM Warning : 
    From bool Foam::functionObjectList::read()
    in file db/functionObjects/functionObjectList/functionObjectList.C at line 1035
    Reading "system/controlDict" at line 2 to 41
    Entry 'xCenter' is not a dictionary
--> FOAM Warning : 
    From bool Foam::functionObjectList::read()
    in file db/functionObjects/functionObjectList/functionObjectList.C at line 1035
    Reading "system/controlDict" at line 2 to 41
    Entry 'yCenter' is not a dictionary
--> FOAM Warning : 
    From bool Foam::functionObjectList::read()
    in file db/functionObjects/functionObjectList/functionObjectList.C at line 1035
    Reading "system/controlDict" at line 2 to 41
    Entry 'zCenter' is not a dictionary
--> FOAM Warning : 
    From bool Foam::functionObjectList::read()
    in file db/functionObjects/functionObjectList/functionObjectList.C at line 1035
    Reading "system/controlDict" at line 2 to 41
    Entry 'inletPatch' is not a dictionary
--> FOAM Warning : 
    From bool Foam::functionObjectList::read()
    in file db/functionObjects/functionObjectList/functionObjectList.C at line 1035
    Reading "system/controlDict" at line 2 to 41
    Entry 'outletPatch' is not a dictionary
--> FOAM Warning : 
    From bool Foam::functionObjectList::read()
    in file db/functionObjects/functionObjectList/functionObjectList.C at line 1035
    Reading "system/controlDict" at line 2 to 41
    Entry 'wallPatches' is not a dictionary
--> FOAM Warning : 
    From bool Foam::functionObjectList::read()
    in file db/functionObjects/functionObjectList/functionObjectList.C at line 1035
    Reading "system/controlDict" at line 2 to 41
    Entry 'forcesWallPatches' is not a dictionary
--> FOAM Warning : 
    From bool Foam::functionObjectList::read()
    in file db/functionObjects/functionObjectList/functionObjectList.C at line 1035
    Reading "system/controlDict" at line 2 to 41
    Entry 'symmPatches' is not a dictionary
--> FOAM Warning : 
    From bool Foam::functionObjectList::read()
    in file db/functionObjects/functionObjectList/functionObjectList.C at line 1035
    Reading "system/controlDict" at line 2 to 41
    Entry 'Uinf' is not a dictionary
--> FOAM Warning : 
    From bool Foam::functionObjectList::read()
    in file db/functionObjects/functionObjectList/functionObjectList.C at line 1035
    Reading "system/controlDict" at line 2 to 41
    Entry 'UinfMag' is not a dictionary
--> FOAM Warning : 
    From bool Foam::functionObjectList::read()
    in file db/functionObjects/functionObjectList/functionObjectList.C at line 1035
    Reading "system/controlDict" at line 2 to 41
    Entry 'nu' is not a dictionary
--> FOAM Warning : 
    From bool Foam::functionObjectList::read()
    in file db/functionObjects/functionObjectList/functionObjectList.C at line 1035
    Reading "system/controlDict" at line 2 to 41
    Entry 'pref' is not a dictionary
--> FOAM Warning : 
    From bool Foam::functionObjectList::read()
    in file db/functionObjects/functionObjectList/functionObjectList.C at line 1035
    Reading "system/controlDict" at line 2 to 41
    Entry 'viscRatio' is not a dictionary
--> FOAM Warning : 
    From bool Foam::functionObjectList::read()
    in file db/functionObjects/functionObjectList/functionObjectList.C at line 1035
    Reading "system/controlDict" at line 2 to 41
    Entry 'Tu' is not a dictionary
--> FOAM Warning : 
    From bool Foam::functionObjectList::read()
    in file db/functionObjects/functionObjectList/functionObjectList.C at line 1035
    Reading "system/controlDict" at line 2 to 41
    Entry 'LESturbModel' is not a dictionary
--> FOAM Warning : 
    From bool Foam::functionObjectList::read()
    in file db/functionObjects/functionObjectList/functionObjectList.C at line 1035
    Reading "system/controlDict" at line 2 to 41
    Entry 'RASturbModel' is not a dictionary
--> FOAM Warning : 
    From bool Foam::functionObjectList::read()
    in file db/functionObjects/functionObjectList/functionObjectList.C at line 1035
    Reading "system/controlDict" at line 2 to 41
    Entry 'deltaTurb' is not a dictionary
--> FOAM Warning : 
    From bool Foam::functionObjectList::read()
    in file db/functionObjects/functionObjectList/functionObjectList.C at line 1035
    Reading "system/controlDict" at line 2 to 41
    Entry 'dt' is not a dictionary
--> FOAM Warning : 
    From bool Foam::functionObjectList::read()
    in file db/functionObjects/functionObjectList/functionObjectList.C at line 1035
    Reading "system/controlDict" at line 2 to 41
    Entry 'tAvg' is not a dictionary
--> FOAM Warning : 
    From bool Foam::functionObjectList::read()
    in file db/functionObjects/functionObjectList/functionObjectList.C at line 1035
    Reading "system/controlDict" at line 2 to 41
    Entry 'tEnd' is not a dictionary
--> FOAM Warning : 
    From bool Foam::functionObjectList::read()
    in file db/functionObjects/functionObjectList/functionObjectList.C at line 1035
    Reading "system/controlDict" at line 2 to 41
    Entry 'writeInterval_' is not a dictionary
--> FOAM Warning : 
    From bool Foam::functionObjectList::read()
    in file db/functionObjects/functionObjectList/functionObjectList.C at line 1035
    Reading "system/controlDict" at line 2 to 41
    Entry 'nCores' is not a dictionary
--> FOAM Warning : 
    From bool Foam::functionObjectList::read()
    in file db/functionObjects/functionObjectList/functionObjectList.C at line 1035
    Reading "system/controlDict" at line 2 to 41
    Entry 'interpScheme' is not a dictionary
--> FOAM Warning : 
    From bool Foam::functionObjectList::read()
    in file db/functionObjects/functionObjectList/functionObjectList.C at line 1035
    Reading "system/controlDict" at line 2 to 41
    Entry 'probeField' is not a dictionary
wallShearStress wallShearStress:
    processing wall patches: 
        Windsor_Body
        CFDWT_Floor
        Windsor_Pins
        Windsor_Base
        Windsor_Body_2
        CFDWT_Floor_2
        Windsor_Pins_2
        Windsor_Base_2

pressure calc_cp:
    Operating mode: staticCoeff
    Not including hydrostatic effects

forceCoeffs forceCoeffsAll:
    rho: rhoInf
    Freestream density (rhoInf) set to 1
    Not including porosity effects
    magUInf: 40
    lRef   : 0.6375
    Aref   : 0.1124
    rhoInf : 1
    Selecting all coefficients
    - Drag force: Cd
    - Drag force front: Cd(f)
    - Drag force rear: Cd(r)
    - Lift force: Cl
    - Lift force front: Cl(f)
    - Lift force rear: Cl(r)
    - Pitch moment: CmPitch
    - Roll moment: CmRoll
    - Yaw moment: CmYaw
    - Side force: Cs
    - Side force front: Cs(f)
    - Side force rear: Cs(r)


forceCoeffs dragCoeffBase:
    rho: rhoInf
    Freestream density (rhoInf) set to 1
    Not including porosity effects
    magUInf: 40
    lRef   : 0.6375
    Aref   : 0.1124
    rhoInf : 1
    Selecting coefficients:
    - Drag force: Cd


Time = 1

velocityDampingConstraint velocityDamping damped 0 (0%) of cells, with max limit 300
[OGL LOG][lduLduBase.H:119] Initialising OGL
	OGL commit:  e75313f+
	Branch: dev 
	Build type: Debug
	Ginkgo version: 1.8.0 ( develop)
	Ginkgo commit: sparse-communicator
	MPI is GPU aware: 1
	Forces host buffer based communication: 0
	CPU ranks per GPU: 1
	Matrix format: Coo
	End OGL_INFO
[OGL LOG][Proc: 0]: global_index_init: 22.347 [ms]
[OGL LOG][Proc: 0]Ux_local_cols: call_init: 0.266 [ms]
[OGL LOG][Proc: 0]Ux_local_rows: call_init: 0.038 [ms]
[OGL LOG][Proc: 0]Ux_local_ldu_map: call_init: 0.014 [ms]
[OGL LOG][Proc: 0]Ux_local_coeffs: call_init: 3.306 [ms]
[OGL LOG][Proc: 0]Ux_non_local_cols: call_init: 0.044 [ms]
[OGL LOG][Proc: 0]Ux_non_local_rows: call_init: 0.005 [ms]
[OGL LOG][Proc: 0]Ux_non_local_ldu_map: call_init: 0.008999999999999999 [ms]
[OGL LOG][Proc: 0]Ux_non_local_coeffs: call_init: 0.011 [ms]
[OGL LOG][Proc: 0]Ux: init_local_sparsity_pattern: 30711.997 [ms]
[OGL LOG][Proc: 0]Ux: init_non_local_sparsity_pattern: 400.625 [ms]
[OGL LOG][Proc: 0]Ux: update_local_matrix_data: 74.593 [ms]
[OGL LOG][Proc: 0]Ux: update_non_local_matrix_data: 0.705 [ms]
[OGL LOG][Proc: 0]device_partition: call_init: 0.201 [ms]
[OGL LOG][Proc: 0]Ux_matrix: call_init: 79.178 [ms]
[OGL LOG][Proc: 0]Ux_rhs: call_init: 4.427 [ms]
[OGL LOG][Proc: 0]Ux_solution: call_init: 2.204 [ms]
[OGL LOG][Preconditioner.H:121] Generate preconditioner BJ MaxBlockSize 1
[OGL LOG][Proc: 0]Ux: init_precond: 11.43 [ms]
[OGL LOG][StoppingCriterion.H:239] Creating stopping criterion with minIter 0 frequency 1
[OGL LOG][Proc: 0]Ux: generate_solver: 0.316 [ms]
[OGL LOG][Proc: 0]Ux: solve: 161.016 [ms]
[OGL LOG][Proc: 0]Ux: copy_x_back: 2.74 [ms]
[OGL LOG][lduLduBase.H:330] 
Statistics:
	Time per iteration: 23002 [mu s]
	Time per residual norm calculation: 5424.000000 [mu s]
	Time per iteration and DOF: 1.823490 [ns]
	Retrieve results bandwidth 2.771000 [GByte/s]
[OGL LOG][Proc: 0]Ux: solve_multi_gpu: 278.179 [ms]
BJcudaGKOBiCGStab:  Solving for Ux, Initial residual = 1.000000000000013, Final residual = 0.04568475506373119, No Iterations 7
[OGL LOG][lduLduBase.H:119] Initialising OGL
	OGL commit:  e75313f+
	Branch: dev 
	Build type: Debug
	Ginkgo version: 1.8.0 ( develop)
	Ginkgo commit: sparse-communicator
	MPI is GPU aware: 1
	Forces host buffer based communication: 0
	CPU ranks per GPU: 1
	Matrix format: Coo
	End OGL_INFO
[OGL LOG][Proc: 0]: global_index_init: 0.022 [ms]
[OGL LOG][Proc: 0]Uy_local_cols: call_init: 0.028 [ms]
[OGL LOG][Proc: 0]Uy_local_rows: call_init: 0.014 [ms]
[OGL LOG][Proc: 0]Uy_local_ldu_map: call_init: 0.011 [ms]
[OGL LOG][Proc: 0]Uy_local_coeffs: call_init: 0.731 [ms]
[OGL LOG][Proc: 0]Uy_non_local_cols: call_init: 0.011 [ms]
[OGL LOG][Proc: 0]Uy_non_local_rows: call_init: 0.004 [ms]
[OGL LOG][Proc: 0]Uy_non_local_ldu_map: call_init: 0.003 [ms]
[OGL LOG][Proc: 0]Uy_non_local_coeffs: call_init: 0.007 [ms]
[OGL LOG][Proc: 0]Uy: init_local_sparsity_pattern: 30723.987 [ms]
[OGL LOG][Proc: 0]Uy: init_non_local_sparsity_pattern: 396.005 [ms]
[OGL LOG][Proc: 0]Uy: update_local_matrix_data: 41.218 [ms]
[OGL LOG][Proc: 0]Uy: update_non_local_matrix_data: 0.608 [ms]
[OGL LOG][Proc: 0]Uy_matrix: call_init: 90.962 [ms]
[OGL LOG][Proc: 0]Uy_rhs: call_init: 1.74 [ms]
[OGL LOG][Proc: 0]Uy_solution: call_init: 2.888 [ms]
[OGL LOG][Preconditioner.H:121] Generate preconditioner BJ MaxBlockSize 1
[OGL LOG][Proc: 0]Uy: init_precond: 1.488 [ms]
[OGL LOG][StoppingCriterion.H:239] Creating stopping criterion with minIter 0 frequency 1
[OGL LOG][Proc: 0]Uy: generate_solver: 0.026 [ms]
[OGL LOG][Proc: 0]Uy: solve: 175.906 [ms]
[OGL LOG][Proc: 0]Uy: copy_x_back: 2.657 [ms]
[OGL LOG][lduLduBase.H:330] 
Statistics:
	Time per iteration: 17590 [mu s]
	Time per residual norm calculation: 1795.000000 [mu s]
	Time per iteration and DOF: 1.394452 [ns]
	Retrieve results bandwidth 2.857000 [GByte/s]
[OGL LOG][Proc: 0]Uy: solve_multi_gpu: 292.044 [ms]
BJcudaGKOBiCGStab:  Solving for Uy, Initial residual = 1.000000000000026, Final residual = 0.07725065440293225, No Iterations 10
[OGL LOG][lduLduBase.H:119] Initialising OGL
	OGL commit:  e75313f+
	Branch: dev 
	Build type: Debug
	Ginkgo version: 1.8.0 ( develop)
	Ginkgo commit: sparse-communicator
	MPI is GPU aware: 1
	Forces host buffer based communication: 0
	CPU ranks per GPU: 1
	Matrix format: Coo
	End OGL_INFO
[OGL LOG][Proc: 0]: global_index_init: 0.021 [ms]
[OGL LOG][Proc: 0]Uz_local_cols: call_init: 0.416 [ms]
[OGL LOG][Proc: 0]Uz_local_rows: call_init: 0.395 [ms]
[OGL LOG][Proc: 0]Uz_local_ldu_map: call_init: 0.235 [ms]
[OGL LOG][Proc: 0]Uz_local_coeffs: call_init: 0.9379999999999999 [ms]
[OGL LOG][Proc: 0]Uz_non_local_cols: call_init: 0.381 [ms]
[OGL LOG][Proc: 0]Uz_non_local_rows: call_init: 0.243 [ms]
[OGL LOG][Proc: 0]Uz_non_local_ldu_map: call_init: 0.605 [ms]
[OGL LOG][Proc: 0]Uz_non_local_coeffs: call_init: 0.148 [ms]
[OGL LOG][Proc: 0]Uz: init_local_sparsity_pattern: 30719.11 [ms]
[OGL LOG][Proc: 0]Uz: init_non_local_sparsity_pattern: 395.308 [ms]
[OGL LOG][Proc: 0]Uz: update_local_matrix_data: 44.254 [ms]
[OGL LOG][Proc: 0]Uz: update_non_local_matrix_data: 0.664 [ms]
[OGL LOG][Proc: 0]Uz_matrix: call_init: 86.913 [ms]
[OGL LOG][Proc: 0]Uz_rhs: call_init: 1.54 [ms]
[OGL LOG][Proc: 0]Uz_solution: call_init: 3.921 [ms]
[OGL LOG][Preconditioner.H:121] Generate preconditioner BJ MaxBlockSize 1
[OGL LOG][Proc: 0]Uz: init_precond: 1.442 [ms]
[OGL LOG][StoppingCriterion.H:239] Creating stopping criterion with minIter 0 frequency 1
[OGL LOG][Proc: 0]Uz: generate_solver: 0.032 [ms]
[OGL LOG][Proc: 0]Uz: solve: 64.37 [ms]
[OGL LOG][Proc: 0]Uz: copy_x_back: 2.44 [ms]
[OGL LOG][lduLduBase.H:330] 
Statistics:
	Time per iteration: 64370 [mu s]
	Time per residual norm calculation: 1284.000000 [mu s]
	Time per iteration and DOF: 5.102950 [ns]
	Retrieve results bandwidth 3.111000 [GByte/s]
[OGL LOG][Proc: 0]Uz: solve_multi_gpu: 175.848 [ms]
BJcudaGKOBiCGStab:  Solving for Uz, Initial residual = 1.000000000000021, Final residual = 0.07317246117889546, No Iterations 1
[OGL LOG][lduLduBase.H:119] Initialising OGL
	OGL commit:  e75313f+
	Branch: dev 
	Build type: Debug
	Ginkgo version: 1.8.0 ( develop)
	Ginkgo commit: sparse-communicator
	MPI is GPU aware: 1
	Forces host buffer based communication: 0
	CPU ranks per GPU: 1
	Matrix format: Coo
	End OGL_INFO
[OGL LOG][Proc: 0]: global_index_init: 0.029 [ms]
[OGL LOG][Proc: 0]p_local_cols: call_init: 0.339 [ms]
[OGL LOG][Proc: 0]p_local_rows: call_init: 0.579 [ms]
[OGL LOG][Proc: 0]p_local_ldu_map: call_init: 0.021 [ms]
[OGL LOG][Proc: 0]p_local_coeffs: call_init: 1.003 [ms]
[OGL LOG][Proc: 0]p_non_local_cols: call_init: 0.396 [ms]
[OGL LOG][Proc: 0]p_non_local_rows: call_init: 0.305 [ms]
[OGL LOG][Proc: 0]p_non_local_ldu_map: call_init: 0.157 [ms]
[OGL LOG][Proc: 0]p_non_local_coeffs: call_init: 0.374 [ms]
[OGL LOG][Proc: 0]p: init_local_sparsity_pattern: 30667.142 [ms]
[OGL LOG][Proc: 0]p: init_non_local_sparsity_pattern: 147.975 [ms]
[OGL LOG][Proc: 0]p: update_local_matrix_data: 25.243 [ms]
[OGL LOG][Proc: 0]p: update_non_local_matrix_data: 0.572 [ms]
[OGL LOG][Proc: 0]p_matrix: call_init: 85.876 [ms]
[OGL LOG][Proc: 0]p_rhs: call_init: 1.786 [ms]
[OGL LOG][Proc: 0]p_solution: call_init: 2.137 [ms]
[OGL LOG][Preconditioner.H:121] Generate preconditioner BJ MaxBlockSize 1
[OGL LOG][Proc: 0]p: init_precond: 1.441 [ms]
[OGL LOG][StoppingCriterion.H:239] Creating stopping criterion with minIter 0 frequency 1
[OGL LOG][Proc: 0]p: generate_solver: 0.168 [ms]
[OGL LOG][Proc: 0]p: solve: 6163.814 [ms]
[OGL LOG][Proc: 0]p: copy_x_back: 3.42 [ms]
[OGL LOG][lduLduBase.H:330] 
Statistics:
	Time per iteration: 5149 [mu s]
	Time per residual norm calculation: 1276.000000 [mu s]
	Time per iteration and DOF: 0.408188 [ns]
	Retrieve results bandwidth 2.220000 [GByte/s]
[OGL LOG][Proc: 0]p: solve_multi_gpu: 6279.28 [ms]
BJcudaGKOCG:  Solving for p, Initial residual = 1.000000000000163, Final residual = 0.009822565694026265, No Iterations 1197
time step continuity errors : sum local = 0.003558626741815792, global = 6.95730518033811e-05, cumulative = 6.95730518033811e-05
[OGL LOG][lduLduBase.H:119] Initialising OGL
	OGL commit:  e75313f+
	Branch: dev 
	Build type: Debug
	Ginkgo version: 1.8.0 ( develop)
	Ginkgo commit: sparse-communicator
	MPI is GPU aware: 1
	Forces host buffer based communication: 0
	CPU ranks per GPU: 1
	Matrix format: Coo
	End OGL_INFO
[OGL LOG][Proc: 0]: global_index_init: 16.829 [ms]
[OGL LOG][Proc: 0]nuTilda_local_cols: call_init: 0.055 [ms]
[OGL LOG][Proc: 0]nuTilda_local_rows: call_init: 0.01 [ms]
[OGL LOG][Proc: 0]nuTilda_local_ldu_map: call_init: 0.008999999999999999 [ms]
[OGL LOG][Proc: 0]nuTilda_local_coeffs: call_init: 0.806 [ms]
[OGL LOG][Proc: 0]nuTilda_non_local_cols: call_init: 0.012 [ms]
[OGL LOG][Proc: 0]nuTilda_non_local_rows: call_init: 0.005 [ms]
[OGL LOG][Proc: 0]nuTilda_non_local_ldu_map: call_init: 0.004 [ms]
[OGL LOG][Proc: 0]nuTilda_non_local_coeffs: call_init: 0.008999999999999999 [ms]
[OGL LOG][Proc: 0]nuTilda: init_local_sparsity_pattern: 30489.992 [ms]
[OGL LOG][Proc: 0]nuTilda: init_non_local_sparsity_pattern: 213.784 [ms]
[OGL LOG][Proc: 0]nuTilda: update_local_matrix_data: 34.588 [ms]
[OGL LOG][Proc: 0]nuTilda: update_non_local_matrix_data: 0.608 [ms]
[OGL LOG][Proc: 0]nuTilda_matrix: call_init: 87.80500000000001 [ms]
[OGL LOG][Proc: 0]nuTilda_rhs: call_init: 1.848 [ms]
[OGL LOG][Proc: 0]nuTilda_solution: call_init: 1.594 [ms]
[OGL LOG][Preconditioner.H:121] Generate preconditioner BJ MaxBlockSize 1
[OGL LOG][Proc: 0]nuTilda: init_precond: 1.512 [ms]
[OGL LOG][StoppingCriterion.H:239] Creating stopping criterion with minIter 0 frequency 1
[OGL LOG][Proc: 0]nuTilda: generate_solver: 0.021 [ms]
[OGL LOG][Proc: 0]nuTilda: solve: 84.499 [ms]
[OGL LOG][Proc: 0]nuTilda: copy_x_back: 2.519 [ms]
[OGL LOG][lduLduBase.H:330] 
Statistics:
	Time per iteration: 28166 [mu s]
	Time per residual norm calculation: 1467.000000 [mu s]
	Time per iteration and DOF: 2.232868 [ns]
	Retrieve results bandwidth 3.014000 [GByte/s]
[OGL LOG][Proc: 0]nuTilda: solve_multi_gpu: 201.762 [ms]
BJcudaGKOBiCGStab:  Solving for nuTilda, Initial residual = 0.9999999950009419, Final residual = 0.0340347070036086, No Iterations 3
bounding nuTilda, min: -0.0003616050630892334 max: 0.001581071064874187 average: 7.142558265177473e-05
ExecutionTime = 176.65 s  ClockTime = 178 s

--> FOAM Warning : 
    From virtual bool Foam::functionObjects::fieldSelection::checkSelection()
    in file functionObjects/fieldSelections/fieldSelection/fieldSelection.C at line 166
    Field k not found
--> FOAM Warning : 
    From virtual bool Foam::functionObjects::fieldSelection::checkSelection()
    in file functionObjects/fieldSelections/fieldSelection/fieldSelection.C at line 166
    Field gammaInt not found
--> FOAM Warning : 
    From virtual bool Foam::functionObjects::fieldSelection::checkSelection()
    in file functionObjects/fieldSelections/fieldSelection/fieldSelection.C at line 166
    Field omega not found
--> FOAM Warning : 
    From virtual bool Foam::functionObjects::fieldSelection::checkSelection()
    in file functionObjects/fieldSelections/fieldSelection/fieldSelection.C at line 166
    Field ReThetat not found
--> FOAM Warning : 
    From virtual bool Foam::functionObjects::fieldSelection::checkSelection()
    in file functionObjects/fieldSelections/fieldSelection/fieldSelection.C at line 166
    Field epsilon not found
--> FOAM Warning : 
    From virtual bool Foam::functionObjects::solverFieldSelection::updateSelection()
    in file functionObjects/fieldSelections/solverFieldSelection/solverFieldSelection.C at line 85
    Valid solver fields are: 3(U nuTilda p)Time = 2

velocityDampingConstraint velocityDamping damped 0 (0%) of cells, with max limit 300
[OGL LOG][Proc: 0]: global_index_init: 0.053 [ms]
[OGL LOG][Proc: 0]Ux_local_coeffs: call_update: 0.002 [ms]
[OGL LOG][Proc: 0]Ux_non_local_coeffs: call_update: 0 [ms]
[OGL LOG][Proc: 0]Ux: update_local_matrix_data: 38.762 [ms]
[OGL LOG][Proc: 0]Ux: update_non_local_matrix_data: 0.616 [ms]
[OGL LOG][Proc: 0]Ux_matrix: call_update: 2.794 [ms]
[OGL LOG][Proc: 0]Ux_rhs: call_update: 1.007 [ms]
[OGL LOG][Preconditioner.H:121] Generate preconditioner BJ MaxBlockSize 1
[OGL LOG][Proc: 0]Ux: init_precond: 1.904 [ms]
[OGL LOG][StoppingCriterion.H:239] Creating stopping criterion with minIter 8 frequency 1
[OGL LOG][Proc: 0]Ux: generate_solver: 0.016 [ms]
[OGL LOG][Proc: 0]Ux: solve: 80.40600000000001 [ms]
[OGL LOG][Proc: 0]Ux: copy_x_back: 2.538 [ms]
[OGL LOG][lduLduBase.H:330] 
Statistics:
	Time per iteration: 20101 [mu s]
	Time per residual norm calculation: 1628.000000 [mu s]
	Time per iteration and DOF: 1.593512 [ns]
	Retrieve results bandwidth 2.991000 [GByte/s]
[OGL LOG][Proc: 0]Ux: solve_multi_gpu: 94.416 [ms]
BJcudaGKOBiCGStab:  Solving for Ux, Initial residual = 0.8164986836036919, Final residual = 0.009520381237900328, No Iterations 4
[OGL LOG][Proc: 0]: global_index_init: 0.228 [ms]
[OGL LOG][Proc: 0]Uy_local_coeffs: call_update: 0 [ms]
[OGL LOG][Proc: 0]Uy_non_local_coeffs: call_update: 0 [ms]
[OGL LOG][Proc: 0]Uy: update_local_matrix_data: 38.077 [ms]
[OGL LOG][Proc: 0]Uy: update_non_local_matrix_data: 0.537 [ms]
[OGL LOG][Proc: 0]Uy_matrix: call_update: 2.598 [ms]
[OGL LOG][Proc: 0]Uy_rhs: call_update: 1.188 [ms]
[OGL LOG][Preconditioner.H:121] Generate preconditioner BJ MaxBlockSize 1
[OGL LOG][Proc: 0]Uy: init_precond: 1.439 [ms]
[OGL LOG][StoppingCriterion.H:239] Creating stopping criterion with minIter 12 frequency 1
[OGL LOG][Proc: 0]Uy: generate_solver: 0.014 [ms]
[OGL LOG][Proc: 0]Uy: solve: 95.934 [ms]
[OGL LOG][Proc: 0]Uy: copy_x_back: 2.685 [ms]
[OGL LOG][lduLduBase.H:330] 
Statistics:
	Time per iteration: 13704 [mu s]
	Time per residual norm calculation: 1644.000000 [mu s]
	Time per iteration and DOF: 1.086388 [ns]
	Retrieve results bandwidth 2.827000 [GByte/s]
[OGL LOG][Proc: 0]Uy: solve_multi_gpu: 110.279 [ms]
BJcudaGKOBiCGStab:  Solving for Uy, Initial residual = 0.9993626357777723, Final residual = 0.002347161434105861, No Iterations 7
[OGL LOG][Proc: 0]: global_index_init: 0.065 [ms]
[OGL LOG][Proc: 0]Uz_local_coeffs: call_update: 0 [ms]
[OGL LOG][Proc: 0]Uz_non_local_coeffs: call_update: 0 [ms]
[OGL LOG][Proc: 0]Uz: update_local_matrix_data: 38.699 [ms]
[OGL LOG][Proc: 0]Uz: update_non_local_matrix_data: 0.621 [ms]
[OGL LOG][Proc: 0]Uz_matrix: call_update: 2.558 [ms]
[OGL LOG][Proc: 0]Uz_rhs: call_update: 1.076 [ms]
[OGL LOG][Preconditioner.H:121] Generate preconditioner BJ MaxBlockSize 1
[OGL LOG][Proc: 0]Uz: init_precond: 1.872 [ms]
[OGL LOG][StoppingCriterion.H:239] Creating stopping criterion with minIter 1 frequency 1
[OGL LOG][Proc: 0]Uz: generate_solver: 0.014 [ms]
[OGL LOG][Proc: 0]Uz: solve: 60.484 [ms]
[OGL LOG][Proc: 0]Uz: copy_x_back: 2.596 [ms]
[OGL LOG][lduLduBase.H:330] 
Statistics:
	Time per iteration: 30242 [mu s]
	Time per residual norm calculation: 1433.000000 [mu s]
	Time per iteration and DOF: 2.397443 [ns]
	Retrieve results bandwidth 2.924000 [GByte/s]
[OGL LOG][Proc: 0]Uz: solve_multi_gpu: 74.047 [ms]
BJcudaGKOBiCGStab:  Solving for Uz, Initial residual = 0.9999375509863376, Final residual = 0.09490557256120928, No Iterations 2
[OGL LOG][Proc: 0]: global_index_init: 0.02 [ms]
[OGL LOG][Proc: 0]p_local_coeffs: call_update: 0 [ms]
[OGL LOG][Proc: 0]p_non_local_coeffs: call_update: 0 [ms]
[OGL LOG][Proc: 0]p: update_local_matrix_data: 29.257 [ms]
[OGL LOG][Proc: 0]p: update_non_local_matrix_data: 0.669 [ms]
[OGL LOG][Proc: 0]p_matrix: call_update: 2.257 [ms]
[OGL LOG][Proc: 0]p_rhs: call_update: 1.269 [ms]
[OGL LOG][Preconditioner.H:121] Generate preconditioner BJ MaxBlockSize 1
[OGL LOG][Proc: 0]p: init_precond: 1.957 [ms]
[OGL LOG][StoppingCriterion.H:239] Creating stopping criterion with minIter 718 frequency 10
[OGL LOG][Proc: 0]p: generate_solver: 0.015 [ms]
[OGL LOG][Proc: 0]p: solve: 3379.606 [ms]
[OGL LOG][Proc: 0]p: copy_x_back: 2.989 [ms]
[OGL LOG][lduLduBase.H:330] 
Statistics:
	Time per iteration: 3669 [mu s]
	Time per residual norm calculation: 1427.000000 [mu s]
	Time per iteration and DOF: 0.290861 [ns]
	Retrieve results bandwidth 2.540000 [GByte/s]
[OGL LOG][Proc: 0]p: solve_multi_gpu: 3394.069 [ms]
BJcudaGKOCG:  Solving for p, Initial residual = 0.4349069129945833, Final residual = 0.003739579861447407, No Iterations 921
time step continuity errors : sum local = 0.08217300942443069, global = 0.004577017458961036, cumulative = 0.004646590510764417
[OGL LOG][Proc: 0]: global_index_init: 1.462 [ms]
[OGL LOG][Proc: 0]nuTilda_local_coeffs: call_update: 0 [ms]
[OGL LOG][Proc: 0]nuTilda_non_local_coeffs: call_update: 0 [ms]
[OGL LOG][Proc: 0]nuTilda: update_local_matrix_data: 38.637 [ms]
[OGL LOG][Proc: 0]nuTilda: update_non_local_matrix_data: 0.5659999999999999 [ms]
[OGL LOG][Proc: 0]nuTilda_matrix: call_update: 2.049 [ms]
[OGL LOG][Proc: 0]nuTilda_rhs: call_update: 1.409 [ms]
[OGL LOG][Preconditioner.H:121] Generate preconditioner BJ MaxBlockSize 1
[OGL LOG][Proc: 0]nuTilda: init_precond: 1.728 [ms]
[OGL LOG][StoppingCriterion.H:239] Creating stopping criterion with minIter 3 frequency 1
[OGL LOG][Proc: 0]nuTilda: generate_solver: 0.02 [ms]
[OGL LOG][Proc: 0]nuTilda: solve: 64.979 [ms]
[OGL LOG][Proc: 0]nuTilda: copy_x_back: 2.559 [ms]
[OGL LOG][lduLduBase.H:330] 
Statistics:
	Time per iteration: 32489 [mu s]
	Time per residual norm calculation: 1425.000000 [mu s]
	Time per iteration and DOF: 2.575575 [ns]
	Retrieve results bandwidth 2.967000 [GByte/s]
[OGL LOG][Proc: 0]nuTilda: solve_multi_gpu: 82.26300000000001 [ms]
BJcudaGKOBiCGStab:  Solving for nuTilda, Initial residual = 0.2452617583533285, Final residual = 0.01606580274667387, No Iterations 2
ExecutionTime = 183.99 s  ClockTime = 185 s

Time = 3

velocityDampingConstraint velocityDamping damped 9725 (0.08%) of cells, with max limit 300
[OGL LOG][Proc: 0]: global_index_init: 0.017 [ms]
[OGL LOG][Proc: 0]Ux_local_coeffs: call_update: 0 [ms]
[OGL LOG][Proc: 0]Ux_non_local_coeffs: call_update: 0 [ms]
[OGL LOG][Proc: 0]Ux: update_local_matrix_data: 39.333 [ms]
[OGL LOG][Proc: 0]Ux: update_non_local_matrix_data: 0.597 [ms]
[OGL LOG][Proc: 0]Ux_matrix: call_update: 2.642 [ms]
[OGL LOG][Proc: 0]Ux_rhs: call_update: 1.049 [ms]
[OGL LOG][Preconditioner.H:121] Generate preconditioner BJ MaxBlockSize 1
[OGL LOG][Proc: 0]Ux: init_precond: 2.003 [ms]
[OGL LOG][StoppingCriterion.H:239] Creating stopping criterion with minIter 5 frequency 1
[OGL LOG][Proc: 0]Ux: generate_solver: 0.026 [ms]
[OGL LOG][Proc: 0]Ux: solve: 67.617 [ms]
[OGL LOG][Proc: 0]Ux: copy_x_back: 2.526 [ms]
[OGL LOG][lduLduBase.H:330] 
Statistics:
	Time per iteration: 22539 [mu s]
	Time per residual norm calculation: 1659.000000 [mu s]
	Time per iteration and DOF: 1.786786 [ns]
	Retrieve results bandwidth 3.005000 [GByte/s]
[OGL LOG][Proc: 0]Ux: solve_multi_gpu: 80.64700000000001 [ms]
BJcudaGKOBiCGStab:  Solving for Ux, Initial residual = 0.3024591881810146, Final residual = 0.004709689678612032, No Iterations 3
[OGL LOG][Proc: 0]: global_index_init: 0.189 [ms]
[OGL LOG][Proc: 0]Uy_local_coeffs: call_update: 0 [ms]
[OGL LOG][Proc: 0]Uy_non_local_coeffs: call_update: 0 [ms]
[OGL LOG][Proc: 0]Uy: update_local_matrix_data: 38.584 [ms]
[OGL LOG][Proc: 0]Uy: update_non_local_matrix_data: 0.591 [ms]
[OGL LOG][Proc: 0]Uy_matrix: call_update: 1.665 [ms]
[OGL LOG][Proc: 0]Uy_rhs: call_update: 1.946 [ms]
[OGL LOG][Preconditioner.H:121] Generate preconditioner BJ MaxBlockSize 1
[OGL LOG][Proc: 0]Uy: init_precond: 1.818 [ms]
[OGL LOG][StoppingCriterion.H:239] Creating stopping criterion with minIter 8 frequency 1
[OGL LOG][Proc: 0]Uy: generate_solver: 0.014 [ms]
[OGL LOG][Proc: 0]Uy: solve: 78.883 [ms]
[OGL LOG][Proc: 0]Uy: copy_x_back: 2.687 [ms]
[OGL LOG][lduLduBase.H:330] 
Statistics:
	Time per iteration: 19720 [mu s]
	Time per residual norm calculation: 1824.000000 [mu s]
	Time per iteration and DOF: 1.563309 [ns]
	Retrieve results bandwidth 2.825000 [GByte/s]
[OGL LOG][Proc: 0]Uy: solve_multi_gpu: 91.473 [ms]
BJcudaGKOBiCGStab:  Solving for Uy, Initial residual = 0.3222038708108523, Final residual = 0.009350111969661857, No Iterations 4
[OGL LOG][Proc: 0]: global_index_init: 0.058 [ms]
[OGL LOG][Proc: 0]Uz_local_coeffs: call_update: 0 [ms]
[OGL LOG][Proc: 0]Uz_non_local_coeffs: call_update: 0 [ms]
[OGL LOG][Proc: 0]Uz: update_local_matrix_data: 38.24 [ms]
[OGL LOG][Proc: 0]Uz: update_non_local_matrix_data: 0.598 [ms]
[OGL LOG][Proc: 0]Uz_matrix: call_update: 3.33 [ms]
[OGL LOG][Proc: 0]Uz_rhs: call_update: 0.89 [ms]
[OGL LOG][Preconditioner.H:121] Generate preconditioner BJ MaxBlockSize 1
[OGL LOG][Proc: 0]Uz: init_precond: 1.454 [ms]
[OGL LOG][StoppingCriterion.H:239] Creating stopping criterion with minIter 2 frequency 1
[OGL LOG][Proc: 0]Uz: generate_solver: 0.014 [ms]
[OGL LOG][Proc: 0]Uz: solve: 67.041 [ms]
[OGL LOG][Proc: 0]Uz: copy_x_back: 2.592 [ms]
[OGL LOG][lduLduBase.H:330] 
Statistics:
	Time per iteration: 33520 [mu s]
	Time per residual norm calculation: 1664.000000 [mu s]
	Time per iteration and DOF: 2.657308 [ns]
	Retrieve results bandwidth 2.929000 [GByte/s]
[OGL LOG][Proc: 0]Uz: solve_multi_gpu: 80.873 [ms]
BJcudaGKOBiCGStab:  Solving for Uz, Initial residual = 0.2544866579115501, Final residual = 0.02450696760926226, No Iterations 2
[OGL LOG][Proc: 0]: global_index_init: 0.062 [ms]
[OGL LOG][Proc: 0]p_local_coeffs: call_update: 0 [ms]
[OGL LOG][Proc: 0]p_non_local_coeffs: call_update: 0 [ms]
[OGL LOG][Proc: 0]p: update_local_matrix_data: 29.777 [ms]
[OGL LOG][Proc: 0]p: update_non_local_matrix_data: 0.578 [ms]
[OGL LOG][Proc: 0]p_matrix: call_update: 2.533 [ms]
[OGL LOG][Proc: 0]p_rhs: call_update: 0.987 [ms]
[OGL LOG][Preconditioner.H:121] Generate preconditioner BJ MaxBlockSize 1
[OGL LOG][Proc: 0]p: init_precond: 1.962 [ms]
[OGL LOG][StoppingCriterion.H:239] Creating stopping criterion with minIter 552 frequency 13
[OGL LOG][Proc: 0]p: generate_solver: 0.023 [ms]
[OGL LOG][Proc: 0]p: solve: 3514.841 [ms]
[OGL LOG][Proc: 0]p: copy_x_back: 2.922 [ms]
[OGL LOG][lduLduBase.H:330] 
Statistics:
	Time per iteration: 3419 [mu s]
	Time per residual norm calculation: 1272.000000 [mu s]
	Time per iteration and DOF: 0.271042 [ns]
	Retrieve results bandwidth 2.598000 [GByte/s]
[OGL LOG][Proc: 0]p: solve_multi_gpu: 3527.894 [ms]
BJcudaGKOCG:  Solving for p, Initial residual = 0.2881594834779451, Final residual = 0.002732164295469317, No Iterations 1028
time step continuity errors : sum local = 0.0230697720629269, global = -0.0001663983436075231, cumulative = 0.004480192167156893
[OGL LOG][Proc: 0]: global_index_init: 0.023 [ms]
[OGL LOG][Proc: 0]nuTilda_local_coeffs: call_update: 0 [ms]
[OGL LOG][Proc: 0]nuTilda_non_local_coeffs: call_update: 0 [ms]
[OGL LOG][Proc: 0]nuTilda: update_local_matrix_data: 37.695 [ms]
[OGL LOG][Proc: 0]nuTilda: update_non_local_matrix_data: 0.581 [ms]
[OGL LOG][Proc: 0]nuTilda_matrix: call_update: 2.331 [ms]
[OGL LOG][Proc: 0]nuTilda_rhs: call_update: 1.106 [ms]
[OGL LOG][Preconditioner.H:121] Generate preconditioner BJ MaxBlockSize 1
[OGL LOG][Proc: 0]nuTilda: init_precond: 1.9 [ms]
[OGL LOG][StoppingCriterion.H:239] Creating stopping criterion with minIter 3 frequency 1
[OGL LOG][Proc: 0]nuTilda: generate_solver: 0.017 [ms]
[OGL LOG][Proc: 0]nuTilda: solve: 59.59 [ms]
[OGL LOG][Proc: 0]nuTilda: copy_x_back: 2.411 [ms]
[OGL LOG][lduLduBase.H:330] 
Statistics:
	Time per iteration: 29795 [mu s]
	Time per residual norm calculation: 1311.000000 [mu s]
	Time per iteration and DOF: 2.362007 [ns]
	Retrieve results bandwidth 3.149000 [GByte/s]
[OGL LOG][Proc: 0]nuTilda: solve_multi_gpu: 73.66800000000001 [ms]
BJcudaGKOBiCGStab:  Solving for nuTilda, Initial residual = 0.2254584637731769, Final residual = 0.01275028931636525, No Iterations 2
ExecutionTime = 191.43 s  ClockTime = 192 s

Time = 4

velocityDampingConstraint velocityDamping damped 208 (0%) of cells, with max limit 300
[OGL LOG][Proc: 0]: global_index_init: 0.06 [ms]
[OGL LOG][Proc: 0]Ux_local_coeffs: call_update: 0 [ms]
[OGL LOG][Proc: 0]Ux_non_local_coeffs: call_update: 0 [ms]
[OGL LOG][Proc: 0]Ux: update_local_matrix_data: 38.276 [ms]
[OGL LOG][Proc: 0]Ux: update_non_local_matrix_data: 0.569 [ms]
[OGL LOG][Proc: 0]Ux_matrix: call_update: 2.595 [ms]
[OGL LOG][Proc: 0]Ux_rhs: call_update: 0.981 [ms]
[OGL LOG][Preconditioner.H:121] Generate preconditioner BJ MaxBlockSize 1
[OGL LOG][Proc: 0]Ux: init_precond: 1.394 [ms]
[OGL LOG][StoppingCriterion.H:239] Creating stopping criterion with minIter 3 frequency 1
[OGL LOG][Proc: 0]Ux: generate_solver: 0.015 [ms]
[OGL LOG][Proc: 0]Ux: solve: 82.55500000000001 [ms]
[OGL LOG][Proc: 0]Ux: copy_x_back: 2.639 [ms]
[OGL LOG][lduLduBase.H:330] 
Statistics:
	Time per iteration: 20638 [mu s]
	Time per residual norm calculation: 1835.000000 [mu s]
	Time per iteration and DOF: 1.636083 [ns]
	Retrieve results bandwidth 2.877000 [GByte/s]
[OGL LOG][Proc: 0]Ux: solve_multi_gpu: 96.471 [ms]
BJcudaGKOBiCGStab:  Solving for Ux, Initial residual = 0.04757848843706498, Final residual = 0.00208594257034192, No Iterations 4
[OGL LOG][Proc: 0]: global_index_init: 0.208 [ms]
[OGL LOG][Proc: 0]Uy_local_coeffs: call_update: 0 [ms]
[OGL LOG][Proc: 0]Uy_non_local_coeffs: call_update: 0 [ms]
[OGL LOG][Proc: 0]Uy: update_local_matrix_data: 38.353 [ms]
[OGL LOG][Proc: 0]Uy: update_non_local_matrix_data: 0.576 [ms]
[OGL LOG][Proc: 0]Uy_matrix: call_update: 3.107 [ms]
[OGL LOG][Proc: 0]Uy_rhs: call_update: 0.905 [ms]
[OGL LOG][Preconditioner.H:121] Generate preconditioner BJ MaxBlockSize 1
[OGL LOG][Proc: 0]Uy: init_precond: 1.448 [ms]
[OGL LOG][StoppingCriterion.H:239] Creating stopping criterion with minIter 5 frequency 1
[OGL LOG][Proc: 0]Uy: generate_solver: 0.015 [ms]
[OGL LOG][Proc: 0]Uy: solve: 72.357 [ms]
[OGL LOG][Proc: 0]Uy: copy_x_back: 2.628 [ms]
[OGL LOG][lduLduBase.H:330] 
Statistics:
	Time per iteration: 24119 [mu s]
	Time per residual norm calculation: 1815.000000 [mu s]
	Time per iteration and DOF: 1.912041 [ns]
	Retrieve results bandwidth 2.889000 [GByte/s]
[OGL LOG][Proc: 0]Uy: solve_multi_gpu: 86.483 [ms]
BJcudaGKOBiCGStab:  Solving for Uy, Initial residual = 0.1331030451893949, Final residual = 0.01302812932042714, No Iterations 3
[OGL LOG][Proc: 0]: global_index_init: 0.039 [ms]
[OGL LOG][Proc: 0]Uz_local_coeffs: call_update: 0 [ms]
[OGL LOG][Proc: 0]Uz_non_local_coeffs: call_update: 0 [ms]
[OGL LOG][Proc: 0]Uz: update_local_matrix_data: 38.489 [ms]
[OGL LOG][Proc: 0]Uz: update_non_local_matrix_data: 0.578 [ms]
[OGL LOG][Proc: 0]Uz_matrix: call_update: 2.843 [ms]
[OGL LOG][Proc: 0]Uz_rhs: call_update: 0.981 [ms]
[OGL LOG][Preconditioner.H:121] Generate preconditioner BJ MaxBlockSize 1
[OGL LOG][Proc: 0]Uz: init_precond: 1.984 [ms]
[OGL LOG][StoppingCriterion.H:239] Creating stopping criterion with minIter 3 frequency 1
[OGL LOG][Proc: 0]Uz: generate_solver: 0.023 [ms]
[OGL LOG][Proc: 0]Uz: solve: 81.705 [ms]
[OGL LOG][Proc: 0]Uz: copy_x_back: 2.722 [ms]
[OGL LOG][lduLduBase.H:330] 
Statistics:
	Time per iteration: 27235 [mu s]
	Time per residual norm calculation: 1653.000000 [mu s]
	Time per iteration and DOF: 2.159062 [ns]
	Retrieve results bandwidth 2.789000 [GByte/s]
[OGL LOG][Proc: 0]Uz: solve_multi_gpu: 95.962 [ms]
BJcudaGKOBiCGStab:  Solving for Uz, Initial residual = 0.1058339672131804, Final residual = 0.01025822443126606, No Iterations 3
[OGL LOG][Proc: 0]: global_index_init: 0.095 [ms]
[OGL LOG][Proc: 0]p_local_coeffs: call_update: 0 [ms]
[OGL LOG][Proc: 0]p_non_local_coeffs: call_update: 0 [ms]
[OGL LOG][Proc: 0]p: update_local_matrix_data: 29.688 [ms]
[OGL LOG][Proc: 0]p: update_non_local_matrix_data: 0.533 [ms]
[OGL LOG][Proc: 0]p_matrix: call_update: 2.807 [ms]
[OGL LOG][Proc: 0]p_rhs: call_update: 0.848 [ms]
[OGL LOG][Preconditioner.H:121] Generate preconditioner BJ MaxBlockSize 1
[OGL LOG][Proc: 0]p: init_precond: 2.036 [ms]
[OGL LOG][StoppingCriterion.H:239] Creating stopping criterion with minIter 616 frequency 14
[OGL LOG][Proc: 0]p: generate_solver: 0.022 [ms]
[OGL LOG][Proc: 0]p: solve: 2119.391 [ms]
[OGL LOG][Proc: 0]p: copy_x_back: 3.164 [ms]
[OGL LOG][lduLduBase.H:330] 
Statistics:
	Time per iteration: 3434 [mu s]
	Time per residual norm calculation: 1423.000000 [mu s]
	Time per iteration and DOF: 0.272231 [ns]
	Retrieve results bandwidth 2.399000 [GByte/s]
[OGL LOG][Proc: 0]p: solve_multi_gpu: 2131.992 [ms]
BJcudaGKOCG:  Solving for p, Initial residual = 0.4080091911203728, Final residual = 0.000202477168503092, No Iterations 617
time step continuity errors : sum local = 0.003052502385225575, global = -0.000531541794026596, cumulative = 0.003948650373130297
[OGL LOG][Proc: 0]: global_index_init: 0.024 [ms]
[OGL LOG][Proc: 0]nuTilda_local_coeffs: call_update: 0 [ms]
[OGL LOG][Proc: 0]nuTilda_non_local_coeffs: call_update: 0 [ms]
[OGL LOG][Proc: 0]nuTilda: update_local_matrix_data: 37.309 [ms]
[OGL LOG][Proc: 0]nuTilda: update_non_local_matrix_data: 0.55 [ms]
[OGL LOG][Proc: 0]nuTilda_matrix: call_update: 2.217 [ms]
[OGL LOG][Proc: 0]nuTilda_rhs: call_update: 1.211 [ms]
[OGL LOG][Preconditioner.H:121] Generate preconditioner BJ MaxBlockSize 1
[OGL LOG][Proc: 0]nuTilda: init_precond: 1.839 [ms]
[OGL LOG][StoppingCriterion.H:239] Creating stopping criterion with minIter 2 frequency 1
[OGL LOG][Proc: 0]nuTilda: generate_solver: 0.015 [ms]
[OGL LOG][Proc: 0]nuTilda: solve: 66.901 [ms]
[OGL LOG][Proc: 0]nuTilda: copy_x_back: 2.527 [ms]
[OGL LOG][lduLduBase.H:330] 
Statistics:
	Time per iteration: 33450 [mu s]
	Time per residual norm calculation: 1422.000000 [mu s]
	Time per iteration and DOF: 2.651758 [ns]
	Retrieve results bandwidth 3.004000 [GByte/s]
[OGL LOG][Proc: 0]nuTilda: solve_multi_gpu: 85.06399999999999 [ms]
BJcudaGKOBiCGStab:  Solving for nuTilda, Initial residual = 0.1344539267865905, Final residual = 0.007491439231307336, No Iterations 2
ExecutionTime = 197.52 s  ClockTime = 198 s

Time = 5

velocityDampingConstraint velocityDamping damped 3528 (0.03%) of cells, with max limit 300
[OGL LOG][Proc: 0]: global_index_init: 0.056 [ms]
[OGL LOG][Proc: 0]Ux_local_coeffs: call_update: 0 [ms]
[OGL LOG][Proc: 0]Ux_non_local_coeffs: call_update: 0 [ms]
[OGL LOG][Proc: 0]Ux: update_local_matrix_data: 40.086 [ms]
[OGL LOG][Proc: 0]Ux: update_non_local_matrix_data: 0.598 [ms]
[OGL LOG][Proc: 0]Ux_matrix: call_update: 2.68 [ms]
[OGL LOG][Proc: 0]Ux_rhs: call_update: 1.03 [ms]
[OGL LOG][Preconditioner.H:121] Generate preconditioner BJ MaxBlockSize 1
[OGL LOG][Proc: 0]Ux: init_precond: 1.469 [ms]
[OGL LOG][StoppingCriterion.H:239] Creating stopping criterion with minIter 4 frequency 1
[OGL LOG][Proc: 0]Ux: generate_solver: 0.014 [ms]
[OGL LOG][Proc: 0]Ux: solve: 63.878 [ms]
[OGL LOG][Proc: 0]Ux: copy_x_back: 2.563 [ms]
[OGL LOG][lduLduBase.H:330] 
Statistics:
	Time per iteration: 31939 [mu s]
	Time per residual norm calculation: 1621.000000 [mu s]
	Time per iteration and DOF: 2.531973 [ns]
	Retrieve results bandwidth 2.962000 [GByte/s]
[OGL LOG][Proc: 0]Ux: solve_multi_gpu: 75.548 [ms]
BJcudaGKOBiCGStab:  Solving for Ux, Initial residual = 0.3470378921076966, Final residual = 0.02333642346188703, No Iterations 2
[OGL LOG][Proc: 0]: global_index_init: 0.21 [ms]
[OGL LOG][Proc: 0]Uy_local_coeffs: call_update: 0 [ms]
[OGL LOG][Proc: 0]Uy_non_local_coeffs: call_update: 0 [ms]
[OGL LOG][Proc: 0]Uy: update_local_matrix_data: 38.381 [ms]
[OGL LOG][Proc: 0]Uy: update_non_local_matrix_data: 0.542 [ms]
[OGL LOG][Proc: 0]Uy_matrix: call_update: 2.989 [ms]
[OGL LOG][Proc: 0]Uy_rhs: call_update: 0.911 [ms]
[OGL LOG][Preconditioner.H:121] Generate preconditioner BJ MaxBlockSize 1
[OGL LOG][Proc: 0]Uy: init_precond: 1.999 [ms]
[OGL LOG][StoppingCriterion.H:239] Creating stopping criterion with minIter 4 frequency 1
[OGL LOG][Proc: 0]Uy: generate_solver: 0.018 [ms]
[OGL LOG][Proc: 0]Uy: solve: 74.7 [ms]
[OGL LOG][Proc: 0]Uy: copy_x_back: 2.619 [ms]
[OGL LOG][lduLduBase.H:330] 
Statistics:
	Time per iteration: 24900 [mu s]
	Time per residual norm calculation: 1618.000000 [mu s]
	Time per iteration and DOF: 1.973955 [ns]
	Retrieve results bandwidth 2.899000 [GByte/s]
[OGL LOG][Proc: 0]Uy: solve_multi_gpu: 88.682 [ms]
BJcudaGKOBiCGStab:  Solving for Uy, Initial residual = 0.4149996233967426, Final residual = 0.02907837010945621, No Iterations 3
[OGL LOG][Proc: 0]: global_index_init: 0.041 [ms]
[OGL LOG][Proc: 0]Uz_local_coeffs: call_update: 0 [ms]
[OGL LOG][Proc: 0]Uz_non_local_coeffs: call_update: 0 [ms]
[OGL LOG][Proc: 0]Uz: update_local_matrix_data: 37.884 [ms]
[OGL LOG][Proc: 0]Uz: update_non_local_matrix_data: 0.541 [ms]
[OGL LOG][Proc: 0]Uz_matrix: call_update: 1.682 [ms]
[OGL LOG][Proc: 0]Uz_rhs: call_update: 2.516 [ms]
[OGL LOG][Preconditioner.H:121] Generate preconditioner BJ MaxBlockSize 1
[OGL LOG][Proc: 0]Uz: init_precond: 1.852 [ms]
[OGL LOG][StoppingCriterion.H:239] Creating stopping criterion with minIter 3 frequency 1
[OGL LOG][Proc: 0]Uz: generate_solver: 0.013 [ms]
[OGL LOG][Proc: 0]Uz: solve: 80.107 [ms]
[OGL LOG][Proc: 0]Uz: copy_x_back: 2.748 [ms]
[OGL LOG][lduLduBase.H:330] 
Statistics:
	Time per iteration: 20026 [mu s]
	Time per residual norm calculation: 1367.000000 [mu s]
	Time per iteration and DOF: 1.587567 [ns]
	Retrieve results bandwidth 2.762000 [GByte/s]
[OGL LOG][Proc: 0]Uz: solve_multi_gpu: 93.34699999999999 [ms]
BJcudaGKOBiCGStab:  Solving for Uz, Initial residual = 0.4137817625905158, Final residual = 0.01864546112703527, No Iterations 4
[OGL LOG][Proc: 0]: global_index_init: 0.021 [ms]
[OGL LOG][Proc: 0]p_local_coeffs: call_update: 0 [ms]
[OGL LOG][Proc: 0]p_non_local_coeffs: call_update: 0 [ms]
[OGL LOG][Proc: 0]p: update_local_matrix_data: 31.738 [ms]
[OGL LOG][Proc: 0]p: update_non_local_matrix_data: 0.609 [ms]
[OGL LOG][Proc: 0]p_matrix: call_update: 2.58 [ms]
[OGL LOG][Proc: 0]p_rhs: call_update: 1.076 [ms]
[OGL LOG][Preconditioner.H:121] Generate preconditioner BJ MaxBlockSize 1
[OGL LOG][Proc: 0]p: init_precond: 1.914 [ms]
[OGL LOG][StoppingCriterion.H:239] Creating stopping criterion with minIter 370 frequency 11
[OGL LOG][Proc: 0]p: generate_solver: 0.015 [ms]
[OGL LOG][Proc: 0]p: solve: 3329.036 [ms]
[OGL LOG][Proc: 0]p: copy_x_back: 2.985 [ms]
[OGL LOG][lduLduBase.H:330] 
Statistics:
	Time per iteration: 3686 [mu s]
	Time per residual norm calculation: 1427.000000 [mu s]
	Time per iteration and DOF: 0.292209 [ns]
	Retrieve results bandwidth 2.543000 [GByte/s]
[OGL LOG][Proc: 0]p: solve_multi_gpu: 3340.741 [ms]
BJcudaGKOCG:  Solving for p, Initial residual = 0.2713288262095241, Final residual = 0.002502927543913106, No Iterations 903
time step continuity errors : sum local = 0.03376795735137129, global = -0.001171003243763805, cumulative = 0.002777647129366493
[OGL LOG][Proc: 0]: global_index_init: 1.329 [ms]
[OGL LOG][Proc: 0]nuTilda_local_coeffs: call_update: 0 [ms]
[OGL LOG][Proc: 0]nuTilda_non_local_coeffs: call_update: 0 [ms]
[OGL LOG][Proc: 0]nuTilda: update_local_matrix_data: 37.447 [ms]
[OGL LOG][Proc: 0]nuTilda: update_non_local_matrix_data: 0.581 [ms]
[OGL LOG][Proc: 0]nuTilda_matrix: call_update: 2.424 [ms]
[OGL LOG][Proc: 0]nuTilda_rhs: call_update: 1.082 [ms]
[OGL LOG][Preconditioner.H:121] Generate preconditioner BJ MaxBlockSize 1
[OGL LOG][Proc: 0]nuTilda: init_precond: 1.902 [ms]
[OGL LOG][StoppingCriterion.H:239] Creating stopping criterion with minIter 3 frequency 1
[OGL LOG][Proc: 0]nuTilda: generate_solver: 0.016 [ms]
[OGL LOG][Proc: 0]nuTilda: solve: 65.518 [ms]
[OGL LOG][Proc: 0]nuTilda: copy_x_back: 2.568 [ms]
[OGL LOG][lduLduBase.H:330] 
Statistics:
	Time per iteration: 32759 [mu s]
	Time per residual norm calculation: 1275.000000 [mu s]
	Time per iteration and DOF: 2.596979 [ns]
	Retrieve results bandwidth 2.956000 [GByte/s]
[OGL LOG][Proc: 0]nuTilda: solve_multi_gpu: 83.35599999999999 [ms]
BJcudaGKOBiCGStab:  Solving for nuTilda, Initial residual = 0.08807945754387422, Final residual = 0.004116027161851818, No Iterations 2
ExecutionTime = 204.81 s  ClockTime = 206 s

Time = 6

velocityDampingConstraint velocityDamping damped 377 (0%) of cells, with max limit 300
[OGL LOG][Proc: 0]: global_index_init: 0.065 [ms]
[OGL LOG][Proc: 0]Ux_local_coeffs: call_update: 0 [ms]
[OGL LOG][Proc: 0]Ux_non_local_coeffs: call_update: 0 [ms]
[OGL LOG][Proc: 0]Ux: update_local_matrix_data: 38.521 [ms]
[OGL LOG][Proc: 0]Ux: update_non_local_matrix_data: 0.572 [ms]
[OGL LOG][Proc: 0]Ux_matrix: call_update: 2.653 [ms]
[OGL LOG][Proc: 0]Ux_rhs: call_update: 1.294 [ms]
[OGL LOG][Preconditioner.H:121] Generate preconditioner BJ MaxBlockSize 1
[OGL LOG][Proc: 0]Ux: init_precond: 1.479 [ms]
[OGL LOG][StoppingCriterion.H:239] Creating stopping criterion with minIter 3 frequency 1
[OGL LOG][Proc: 0]Ux: generate_solver: 0.015 [ms]
[OGL LOG][Proc: 0]Ux: solve: 76.48999999999999 [ms]
[OGL LOG][Proc: 0]Ux: copy_x_back: 2.537 [ms]
[OGL LOG][lduLduBase.H:330] 
Statistics:
	Time per iteration: 25496 [mu s]
	Time per residual norm calculation: 1806.000000 [mu s]
	Time per iteration and DOF: 2.021203 [ns]
	Retrieve results bandwidth 2.992000 [GByte/s]
[OGL LOG][Proc: 0]Ux: solve_multi_gpu: 88.90300000000001 [ms]
BJcudaGKOBiCGStab:  Solving for Ux, Initial residual = 0.1748550167871882, Final residual = 0.01119571383952715, No Iterations 3
[OGL LOG][Proc: 0]: global_index_init: 0.207 [ms]
[OGL LOG][Proc: 0]Uy_local_coeffs: call_update: 0 [ms]
[OGL LOG][Proc: 0]Uy_non_local_coeffs: call_update: 0 [ms]
[OGL LOG][Proc: 0]Uy: update_local_matrix_data: 38.225 [ms]
[OGL LOG][Proc: 0]Uy: update_non_local_matrix_data: 0.545 [ms]
[OGL LOG][Proc: 0]Uy_matrix: call_update: 2.583 [ms]
[OGL LOG][Proc: 0]Uy_rhs: call_update: 1.102 [ms]
[OGL LOG][Preconditioner.H:121] Generate preconditioner BJ MaxBlockSize 1
[OGL LOG][Proc: 0]Uy: init_precond: 1.412 [ms]
[OGL LOG][StoppingCriterion.H:239] Creating stopping criterion with minIter 4 frequency 1
[OGL LOG][Proc: 0]Uy: generate_solver: 0.015 [ms]
[OGL LOG][Proc: 0]Uy: solve: 88.709 [ms]
[OGL LOG][Proc: 0]Uy: copy_x_back: 2.649 [ms]
[OGL LOG][lduLduBase.H:330] 
Statistics:
	Time per iteration: 17741 [mu s]
	Time per residual norm calculation: 1646.000000 [mu s]
	Time per iteration and DOF: 1.406423 [ns]
	Retrieve results bandwidth 2.866000 [GByte/s]
[OGL LOG][Proc: 0]Uy: solve_multi_gpu: 100.871 [ms]
BJcudaGKOBiCGStab:  Solving for Uy, Initial residual = 0.3200708508383692, Final residual = 0.005432919172147916, No Iterations 5
[OGL LOG][Proc: 0]: global_index_init: 0.056 [ms]
[OGL LOG][Proc: 0]Uz_local_coeffs: call_update: 0 [ms]
[OGL LOG][Proc: 0]Uz_non_local_coeffs: call_update: 0 [ms]
[OGL LOG][Proc: 0]Uz: update_local_matrix_data: 37.872 [ms]
[OGL LOG][Proc: 0]Uz: update_non_local_matrix_data: 0.543 [ms]
[OGL LOG][Proc: 0]Uz_matrix: call_update: 2.408 [ms]
[OGL LOG][Proc: 0]Uz_rhs: call_update: 1.391 [ms]
[OGL LOG][Preconditioner.H:121] Generate preconditioner BJ MaxBlockSize 1
[OGL LOG][Proc: 0]Uz: init_precond: 1.899 [ms]
[OGL LOG][StoppingCriterion.H:239] Creating stopping criterion with minIter 4 frequency 1
[OGL LOG][Proc: 0]Uz: generate_solver: 0.017 [ms]
[OGL LOG][Proc: 0]Uz: solve: 71.13200000000001 [ms]
[OGL LOG][Proc: 0]Uz: copy_x_back: 2.573 [ms]
[OGL LOG][lduLduBase.H:330] 
Statistics:
	Time per iteration: 23710 [mu s]
	Time per residual norm calculation: 1411.000000 [mu s]
	Time per iteration and DOF: 1.879617 [ns]
	Retrieve results bandwidth 2.950000 [GByte/s]
[OGL LOG][Proc: 0]Uz: solve_multi_gpu: 85.99299999999999 [ms]
BJcudaGKOBiCGStab:  Solving for Uz, Initial residual = 0.3488879139994135, Final residual = 0.03064968665891041, No Iterations 3
[OGL LOG][Proc: 0]: global_index_init: 0.018 [ms]
[OGL LOG][Proc: 0]p_local_coeffs: call_update: 0 [ms]
[OGL LOG][Proc: 0]p_non_local_coeffs: call_update: 0 [ms]
[OGL LOG][Proc: 0]p: update_local_matrix_data: 29.35 [ms]
[OGL LOG][Proc: 0]p: update_non_local_matrix_data: 0.608 [ms]
[OGL LOG][Proc: 0]p_matrix: call_update: 2.429 [ms]
[OGL LOG][Proc: 0]p_rhs: call_update: 1.034 [ms]
[OGL LOG][Preconditioner.H:121] Generate preconditioner BJ MaxBlockSize 1
[OGL LOG][Proc: 0]p: init_precond: 1.88 [ms]
[OGL LOG][StoppingCriterion.H:239] Creating stopping criterion with minIter 541 frequency 13
[OGL LOG][Proc: 0]p: generate_solver: 0.014 [ms]
[OGL LOG][Proc: 0]p: solve: 3332.758 [ms]
[OGL LOG][Proc: 0]p: copy_x_back: 3.028 [ms]
[OGL LOG][lduLduBase.H:330] 
Statistics:
	Time per iteration: 3711 [mu s]
	Time per residual norm calculation: 983.000000 [mu s]
	Time per iteration and DOF: 0.294191 [ns]
	Retrieve results bandwidth 2.507000 [GByte/s]
[OGL LOG][Proc: 0]p: solve_multi_gpu: 3346.554 [ms]
BJcudaGKOCG:  Solving for p, Initial residual = 0.5334546596172537, Final residual = 0.005320279510376969, No Iterations 898
time step continuity errors : sum local = 0.03842409120297498, global = -0.001043977144143532, cumulative = 0.00173366998522296
[OGL LOG][Proc: 0]: global_index_init: 0.365 [ms]
[OGL LOG][Proc: 0]nuTilda_local_coeffs: call_update: 0 [ms]
[OGL LOG][Proc: 0]nuTilda_non_local_coeffs: call_update: 0 [ms]
[OGL LOG][Proc: 0]nuTilda: update_local_matrix_data: 37.714 [ms]
[OGL LOG][Proc: 0]nuTilda: update_non_local_matrix_data: 0.5639999999999999 [ms]
[OGL LOG][Proc: 0]nuTilda_matrix: call_update: 1.999 [ms]
[OGL LOG][Proc: 0]nuTilda_rhs: call_update: 1.466 [ms]
[OGL LOG][Preconditioner.H:121] Generate preconditioner BJ MaxBlockSize 1
[OGL LOG][Proc: 0]nuTilda: init_precond: 1.757 [ms]
[OGL LOG][StoppingCriterion.H:239] Creating stopping criterion with minIter 3 frequency 1
[OGL LOG][Proc: 0]nuTilda: generate_solver: 0.014 [ms]
[OGL LOG][Proc: 0]nuTilda: solve: 65.59699999999999 [ms]
[OGL LOG][Proc: 0]nuTilda: copy_x_back: 2.583 [ms]
[OGL LOG][lduLduBase.H:330] 
Statistics:
	Time per iteration: 32798 [mu s]
	Time per residual norm calculation: 1277.000000 [mu s]
	Time per iteration and DOF: 2.600071 [ns]
	Retrieve results bandwidth 2.939000 [GByte/s]
[OGL LOG][Proc: 0]nuTilda: solve_multi_gpu: 79.941 [ms]
BJcudaGKOBiCGStab:  Solving for nuTilda, Initial residual = 0.0616082476278899, Final residual = 0.003343743706580453, No Iterations 2
ExecutionTime = 212.13 s  ClockTime = 213 s

Time = 7

velocityDampingConstraint velocityDamping damped 1776 (0.01%) of cells, with max limit 300
[OGL LOG][Proc: 0]: global_index_init: 0.061 [ms]
[OGL LOG][Proc: 0]Ux_local_coeffs: call_update: 0 [ms]
[OGL LOG][Proc: 0]Ux_non_local_coeffs: call_update: 0 [ms]
[OGL LOG][Proc: 0]Ux: update_local_matrix_data: 38.592 [ms]
[OGL LOG][Proc: 0]Ux: update_non_local_matrix_data: 0.543 [ms]
[OGL LOG][Proc: 0]Ux_matrix: call_update: 2.799 [ms]
[OGL LOG][Proc: 0]Ux_rhs: call_update: 0.987 [ms]
[OGL LOG][Preconditioner.H:121] Generate preconditioner BJ MaxBlockSize 1
[OGL LOG][Proc: 0]Ux: init_precond: 1.388 [ms]
[OGL LOG][StoppingCriterion.H:239] Creating stopping criterion with minIter 4 frequency 1
[OGL LOG][Proc: 0]Ux: generate_solver: 0.016 [ms]
[OGL LOG][Proc: 0]Ux: solve: 69.07899999999999 [ms]
[OGL LOG][Proc: 0]Ux: copy_x_back: 2.586 [ms]
[OGL LOG][lduLduBase.H:330] 
Statistics:
	Time per iteration: 23026 [mu s]
	Time per residual norm calculation: 1650.000000 [mu s]
	Time per iteration and DOF: 1.825393 [ns]
	Retrieve results bandwidth 2.936000 [GByte/s]
[OGL LOG][Proc: 0]Ux: solve_multi_gpu: 82.81100000000001 [ms]
BJcudaGKOBiCGStab:  Solving for Ux, Initial residual = 0.2343569597018272, Final residual = 0.02195421982420425, No Iterations 3
[OGL LOG][Proc: 0]: global_index_init: 0.223 [ms]
[OGL LOG][Proc: 0]Uy_local_coeffs: call_update: 0 [ms]
[OGL LOG][Proc: 0]Uy_non_local_coeffs: call_update: 0 [ms]
[OGL LOG][Proc: 0]Uy: update_local_matrix_data: 38.509 [ms]
[OGL LOG][Proc: 0]Uy: update_non_local_matrix_data: 0.538 [ms]
[OGL LOG][Proc: 0]Uy_matrix: call_update: 2.595 [ms]
[OGL LOG][Proc: 0]Uy_rhs: call_update: 1.054 [ms]
[OGL LOG][Preconditioner.H:121] Generate preconditioner BJ MaxBlockSize 1
[OGL LOG][Proc: 0]Uy: init_precond: 1.394 [ms]
[OGL LOG][StoppingCriterion.H:239] Creating stopping criterion with minIter 6 frequency 1
[OGL LOG][Proc: 0]Uy: generate_solver: 0.016 [ms]
[OGL LOG][Proc: 0]Uy: solve: 75.65000000000001 [ms]
[OGL LOG][Proc: 0]Uy: copy_x_back: 2.609 [ms]
[OGL LOG][lduLduBase.H:330] 
Statistics:
	Time per iteration: 18912 [mu s]
	Time per residual norm calculation: 1836.000000 [mu s]
	Time per iteration and DOF: 1.499254 [ns]
	Retrieve results bandwidth 2.910000 [GByte/s]
[OGL LOG][Proc: 0]Uy: solve_multi_gpu: 89.271 [ms]
BJcudaGKOBiCGStab:  Solving for Uy, Initial residual = 0.2373009499302852, Final residual = 0.0120542157577439, No Iterations 4
[OGL LOG][Proc: 0]: global_index_init: 0.03 [ms]
[OGL LOG][Proc: 0]Uz_local_coeffs: call_update: 0 [ms]
[OGL LOG][Proc: 0]Uz_non_local_coeffs: call_update: 0 [ms]
[OGL LOG][Proc: 0]Uz: update_local_matrix_data: 38.039 [ms]
[OGL LOG][Proc: 0]Uz: update_non_local_matrix_data: 0.5649999999999999 [ms]
[OGL LOG][Proc: 0]Uz_matrix: call_update: 2.517 [ms]
[OGL LOG][Proc: 0]Uz_rhs: call_update: 1.092 [ms]
[OGL LOG][Preconditioner.H:121] Generate preconditioner BJ MaxBlockSize 1
[OGL LOG][Proc: 0]Uz: init_precond: 1.887 [ms]
[OGL LOG][StoppingCriterion.H:239] Creating stopping criterion with minIter 4 frequency 1
[OGL LOG][Proc: 0]Uz: generate_solver: 0.014 [ms]
[OGL LOG][Proc: 0]Uz: solve: 78.968 [ms]
[OGL LOG][Proc: 0]Uz: copy_x_back: 2.623 [ms]
[OGL LOG][lduLduBase.H:330] 
Statistics:
	Time per iteration: 19742 [mu s]
	Time per residual norm calculation: 1507.000000 [mu s]
	Time per iteration and DOF: 1.565053 [ns]
	Retrieve results bandwidth 2.894000 [GByte/s]
[OGL LOG][Proc: 0]Uz: solve_multi_gpu: 92.83 [ms]
BJcudaGKOBiCGStab:  Solving for Uz, Initial residual = 0.2290983333172344, Final residual = 0.02252836708932416, No Iterations 4
[OGL LOG][Proc: 0]: global_index_init: 0.057 [ms]
[OGL LOG][Proc: 0]p_local_coeffs: call_update: 0 [ms]
[OGL LOG][Proc: 0]p_non_local_coeffs: call_update: 0 [ms]
[OGL LOG][Proc: 0]p: update_local_matrix_data: 28.991 [ms]
[OGL LOG][Proc: 0]p: update_non_local_matrix_data: 0.609 [ms]
[OGL LOG][Proc: 0]p_matrix: call_update: 2.25 [ms]
[OGL LOG][Proc: 0]p_rhs: call_update: 1.387 [ms]
[OGL LOG][Preconditioner.H:121] Generate preconditioner BJ MaxBlockSize 1
[OGL LOG][Proc: 0]p: init_precond: 1.687 [ms]
[OGL LOG][StoppingCriterion.H:239] Creating stopping criterion with minIter 538 frequency 10
[OGL LOG][Proc: 0]p: generate_solver: 0.015 [ms]
[OGL LOG][Proc: 0]p: solve: 1852.646 [ms]
[OGL LOG][Proc: 0]p: copy_x_back: 2.91 [ms]
[OGL LOG][lduLduBase.H:330] 
Statistics:
	Time per iteration: 3424 [mu s]
	Time per residual norm calculation: 1287.000000 [mu s]
	Time per iteration and DOF: 0.271439 [ns]
	Retrieve results bandwidth 2.609000 [GByte/s]
[OGL LOG][Proc: 0]p: solve_multi_gpu: 1867.556 [ms]
BJcudaGKOCG:  Solving for p, Initial residual = 0.230712046175034, Final residual = 0.0006642858097190585, No Iterations 541
time step continuity errors : sum local = 0.006636889067326925, global = 0.0006212089338956249, cumulative = 0.002354878919118585
[OGL LOG][Proc: 0]: global_index_init: 1.935 [ms]
[OGL LOG][Proc: 0]nuTilda_local_coeffs: call_update: 0 [ms]
[OGL LOG][Proc: 0]nuTilda_non_local_coeffs: call_update: 0 [ms]
[OGL LOG][Proc: 0]nuTilda: update_local_matrix_data: 38.871 [ms]
[OGL LOG][Proc: 0]nuTilda: update_non_local_matrix_data: 0.66 [ms]
[OGL LOG][Proc: 0]nuTilda_matrix: call_update: 2.392 [ms]
[OGL LOG][Proc: 0]nuTilda_rhs: call_update: 1.114 [ms]
[OGL LOG][Preconditioner.H:121] Generate preconditioner BJ MaxBlockSize 1
[OGL LOG][Proc: 0]nuTilda: init_precond: 1.891 [ms]
[OGL LOG][StoppingCriterion.H:239] Creating stopping criterion with minIter 3 frequency 1
[OGL LOG][Proc: 0]nuTilda: generate_solver: 0.017 [ms]
[OGL LOG][Proc: 0]nuTilda: solve: 65.15600000000001 [ms]
[OGL LOG][Proc: 0]nuTilda: copy_x_back: 2.551 [ms]
[OGL LOG][lduLduBase.H:330] 
Statistics:
	Time per iteration: 32578 [mu s]
	Time per residual norm calculation: 1429.000000 [mu s]
	Time per iteration and DOF: 2.582630 [ns]
	Retrieve results bandwidth 2.976000 [GByte/s]
[OGL LOG][Proc: 0]nuTilda: solve_multi_gpu: 81.81 [ms]
BJcudaGKOBiCGStab:  Solving for nuTilda, Initial residual = 0.04987361373665265, Final residual = 0.002808482221299213, No Iterations 2
ExecutionTime = 217.96 s  ClockTime = 219 s

Time = 8

velocityDampingConstraint velocityDamping damped 783 (0.01%) of cells, with max limit 300
[OGL LOG][Proc: 0]: global_index_init: 0.048 [ms]
[OGL LOG][Proc: 0]Ux_local_coeffs: call_update: 0 [ms]
[OGL LOG][Proc: 0]Ux_non_local_coeffs: call_update: 0 [ms]
[OGL LOG][Proc: 0]Ux: update_local_matrix_data: 39.335 [ms]
[OGL LOG][Proc: 0]Ux: update_non_local_matrix_data: 0.596 [ms]
[OGL LOG][Proc: 0]Ux_matrix: call_update: 2.64 [ms]
[OGL LOG][Proc: 0]Ux_rhs: call_update: 1.039 [ms]
[OGL LOG][Preconditioner.H:121] Generate preconditioner BJ MaxBlockSize 1
[OGL LOG][Proc: 0]Ux: init_precond: 1.429 [ms]
[OGL LOG][StoppingCriterion.H:239] Creating stopping criterion with minIter 3 frequency 1
[OGL LOG][Proc: 0]Ux: generate_solver: 0.015 [ms]
[OGL LOG][Proc: 0]Ux: solve: 69.89 [ms]
[OGL LOG][Proc: 0]Ux: copy_x_back: 2.557 [ms]
[OGL LOG][lduLduBase.H:330] 
Statistics:
	Time per iteration: 23296 [mu s]
	Time per residual norm calculation: 1841.000000 [mu s]
	Time per iteration and DOF: 1.846797 [ns]
	Retrieve results bandwidth 2.969000 [GByte/s]
[OGL LOG][Proc: 0]Ux: solve_multi_gpu: 82.627 [ms]
BJcudaGKOBiCGStab:  Solving for Ux, Initial residual = 0.2120840313390478, Final residual = 0.01505134528012096, No Iterations 3
[OGL LOG][Proc: 0]: global_index_init: 0.137 [ms]
[OGL LOG][Proc: 0]Uy_local_coeffs: call_update: 0 [ms]
[OGL LOG][Proc: 0]Uy_non_local_coeffs: call_update: 0 [ms]
[OGL LOG][Proc: 0]Uy: update_local_matrix_data: 38.771 [ms]
[OGL LOG][Proc: 0]Uy: update_non_local_matrix_data: 0.556 [ms]
[OGL LOG][Proc: 0]Uy_matrix: call_update: 3.25 [ms]
[OGL LOG][Proc: 0]Uy_rhs: call_update: 0.913 [ms]
[OGL LOG][Preconditioner.H:121] Generate preconditioner BJ MaxBlockSize 1
[OGL LOG][Proc: 0]Uy: init_precond: 1.471 [ms]
[OGL LOG][StoppingCriterion.H:239] Creating stopping criterion with minIter 4 frequency 1
[OGL LOG][Proc: 0]Uy: generate_solver: 0.015 [ms]
[OGL LOG][Proc: 0]Uy: solve: 78.44499999999999 [ms]
[OGL LOG][Proc: 0]Uy: copy_x_back: 2.676 [ms]
[OGL LOG][lduLduBase.H:330] 
Statistics:
	Time per iteration: 19611 [mu s]
	Time per residual norm calculation: 1669.000000 [mu s]
	Time per iteration and DOF: 1.554668 [ns]
	Retrieve results bandwidth 2.837000 [GByte/s]
[OGL LOG][Proc: 0]Uy: solve_multi_gpu: 92.34999999999999 [ms]
BJcudaGKOBiCGStab:  Solving for Uy, Initial residual = 0.2689570951627381, Final residual = 0.009663224550074262, No Iterations 4
[OGL LOG][Proc: 0]: global_index_init: 0.055 [ms]
[OGL LOG][Proc: 0]Uz_local_coeffs: call_update: 0 [ms]
[OGL LOG][Proc: 0]Uz_non_local_coeffs: call_update: 0 [ms]
[OGL LOG][Proc: 0]Uz: update_local_matrix_data: 37.8 [ms]
[OGL LOG][Proc: 0]Uz: update_non_local_matrix_data: 0.639 [ms]
[OGL LOG][Proc: 0]Uz_matrix: call_update: 2.659 [ms]
[OGL LOG][Proc: 0]Uz_rhs: call_update: 1.065 [ms]
[OGL LOG][Preconditioner.H:121] Generate preconditioner BJ MaxBlockSize 1
[OGL LOG][Proc: 0]Uz: init_precond: 1.919 [ms]
[OGL LOG][StoppingCriterion.H:239] Creating stopping criterion with minIter 4 frequency 1
[OGL LOG][Proc: 0]Uz: generate_solver: 0.017 [ms]
[OGL LOG][Proc: 0]Uz: solve: 67.771 [ms]
[OGL LOG][Proc: 0]Uz: copy_x_back: 2.693 [ms]
[OGL LOG][lduLduBase.H:330] 
Statistics:
	Time per iteration: 22590 [mu s]
	Time per residual norm calculation: 1190.000000 [mu s]
	Time per iteration and DOF: 1.790829 [ns]
	Retrieve results bandwidth 2.819000 [GByte/s]
[OGL LOG][Proc: 0]Uz: solve_multi_gpu: 80.907 [ms]
BJcudaGKOBiCGStab:  Solving for Uz, Initial residual = 0.2829610397000894, Final residual = 0.02736842643300087, No Iterations 3
[OGL LOG][Proc: 0]: global_index_init: 0.019 [ms]
[OGL LOG][Proc: 0]p_local_coeffs: call_update: 0 [ms]
[OGL LOG][Proc: 0]p_non_local_coeffs: call_update: 0 [ms]
[OGL LOG][Proc: 0]p: update_local_matrix_data: 28.967 [ms]
[OGL LOG][Proc: 0]p: update_non_local_matrix_data: 0.604 [ms]
[OGL LOG][Proc: 0]p_matrix: call_update: 2.847 [ms]
[OGL LOG][Proc: 0]p_rhs: call_update: 0.907 [ms]
[OGL LOG][Preconditioner.H:121] Generate preconditioner BJ MaxBlockSize 1
[OGL LOG][Proc: 0]p: init_precond: 1.788 [ms]
[OGL LOG][StoppingCriterion.H:239] Creating stopping criterion with minIter 324 frequency 10
[OGL LOG][Proc: 0]p: generate_solver: 0.014 [ms]
[OGL LOG][Proc: 0]p: solve: 1226.757 [ms]
[OGL LOG][Proc: 0]p: copy_x_back: 2.908 [ms]
[OGL LOG][lduLduBase.H:330] 
Statistics:
	Time per iteration: 3495 [mu s]
	Time per residual norm calculation: 1281.000000 [mu s]
	Time per iteration and DOF: 0.277067 [ns]
	Retrieve results bandwidth 2.610000 [GByte/s]
[OGL LOG][Proc: 0]p: solve_multi_gpu: 1239.136 [ms]
BJcudaGKOCG:  Solving for p, Initial residual = 0.4025455726689458, Final residual = 0.003933755591371507, No Iterations 351
time step continuity errors : sum local = 0.04569639244561065, global = 0.00706857089305957, cumulative = 0.009423449812178155
[OGL LOG][Proc: 0]: global_index_init: 1.997 [ms]
[OGL LOG][Proc: 0]nuTilda_local_coeffs: call_update: 0 [ms]
[OGL LOG][Proc: 0]nuTilda_non_local_coeffs: call_update: 0 [ms]
[OGL LOG][Proc: 0]nuTilda: update_local_matrix_data: 46.594 [ms]
[OGL LOG][Proc: 0]nuTilda: update_non_local_matrix_data: 0.611 [ms]
[OGL LOG][Proc: 0]nuTilda_matrix: call_update: 2.485 [ms]
[OGL LOG][Proc: 0]nuTilda_rhs: call_update: 1.061 [ms]
[OGL LOG][Preconditioner.H:121] Generate preconditioner BJ MaxBlockSize 1
[OGL LOG][Proc: 0]nuTilda: init_precond: 1.358 [ms]
[OGL LOG][StoppingCriterion.H:239] Creating stopping criterion with minIter 3 frequency 1
[OGL LOG][Proc: 0]nuTilda: generate_solver: 0.016 [ms]
[OGL LOG][Proc: 0]nuTilda: solve: 65.83499999999999 [ms]
[OGL LOG][Proc: 0]nuTilda: copy_x_back: 2.619 [ms]
[OGL LOG][lduLduBase.H:330] 
Statistics:
	Time per iteration: 32917 [mu s]
	Time per residual norm calculation: 1271.000000 [mu s]
	Time per iteration and DOF: 2.609505 [ns]
	Retrieve results bandwidth 2.899000 [GByte/s]
[OGL LOG][Proc: 0]nuTilda: solve_multi_gpu: 77.5 [ms]
BJcudaGKOBiCGStab:  Solving for nuTilda, Initial residual = 0.04166480537499413, Final residual = 0.002457639955348103, No Iterations 2
ExecutionTime = 223.18 s  ClockTime = 224 s

Time = 9

velocityDampingConstraint velocityDamping damped 555 (0%) of cells, with max limit 300
[OGL LOG][Proc: 0]: global_index_init: 0.061 [ms]
[OGL LOG][Proc: 0]Ux_local_coeffs: call_update: 0 [ms]
[OGL LOG][Proc: 0]Ux_non_local_coeffs: call_update: 0 [ms]
[OGL LOG][Proc: 0]Ux: update_local_matrix_data: 38.509 [ms]
[OGL LOG][Proc: 0]Ux: update_non_local_matrix_data: 0.555 [ms]
[OGL LOG][Proc: 0]Ux_matrix: call_update: 2.738 [ms]
[OGL LOG][Proc: 0]Ux_rhs: call_update: 0.95 [ms]
[OGL LOG][Preconditioner.H:121] Generate preconditioner BJ MaxBlockSize 1
[OGL LOG][Proc: 0]Ux: init_precond: 1.453 [ms]
[OGL LOG][StoppingCriterion.H:239] Creating stopping criterion with minIter 3 frequency 1
[OGL LOG][Proc: 0]Ux: generate_solver: 0.013 [ms]
[OGL LOG][Proc: 0]Ux: solve: 71.48699999999999 [ms]
[OGL LOG][Proc: 0]Ux: copy_x_back: 2.604 [ms]
[OGL LOG][lduLduBase.H:330] 
Statistics:
	Time per iteration: 23829 [mu s]
	Time per residual norm calculation: 1643.000000 [mu s]
	Time per iteration and DOF: 1.889051 [ns]
	Retrieve results bandwidth 2.915000 [GByte/s]
[OGL LOG][Proc: 0]Ux: solve_multi_gpu: 84.831 [ms]
BJcudaGKOBiCGStab:  Solving for Ux, Initial residual = 0.1594347826134999, Final residual = 0.01296101830810511, No Iterations 3
[OGL LOG][Proc: 0]: global_index_init: 0.305 [ms]
[OGL LOG][Proc: 0]Uy_local_coeffs: call_update: 0 [ms]
[OGL LOG][Proc: 0]Uy_non_local_coeffs: call_update: 0 [ms]
[OGL LOG][Proc: 0]Uy: update_local_matrix_data: 38.655 [ms]
[OGL LOG][Proc: 0]Uy: update_non_local_matrix_data: 0.582 [ms]
[OGL LOG][Proc: 0]Uy_matrix: call_update: 1.628 [ms]
[OGL LOG][Proc: 0]Uy_rhs: call_update: 2.145 [ms]
[OGL LOG][Preconditioner.H:121] Generate preconditioner BJ MaxBlockSize 1
[OGL LOG][Proc: 0]Uy: init_precond: 1.762 [ms]
[OGL LOG][StoppingCriterion.H:239] Creating stopping criterion with minIter 4 frequency 1
[OGL LOG][Proc: 0]Uy: generate_solver: 0.014 [ms]
[OGL LOG][Proc: 0]Uy: solve: 79.98999999999999 [ms]
[OGL LOG][Proc: 0]Uy: copy_x_back: 2.548 [ms]
[OGL LOG][lduLduBase.H:330] 
Statistics:
	Time per iteration: 19997 [mu s]
	Time per residual norm calculation: 1727.000000 [mu s]
	Time per iteration and DOF: 1.585268 [ns]
	Retrieve results bandwidth 2.979000 [GByte/s]
[OGL LOG][Proc: 0]Uy: solve_multi_gpu: 93.70999999999999 [ms]
BJcudaGKOBiCGStab:  Solving for Uy, Initial residual = 0.706519657835457, Final residual = 0.03313035669891505, No Iterations 4
[OGL LOG][Proc: 0]: global_index_init: 0.044 [ms]
[OGL LOG][Proc: 0]Uz_local_coeffs: call_update: 0 [ms]
[OGL LOG][Proc: 0]Uz_non_local_coeffs: call_update: 0 [ms]
[OGL LOG][Proc: 0]Uz: update_local_matrix_data: 39.024 [ms]
[OGL LOG][Proc: 0]Uz: update_non_local_matrix_data: 0.57 [ms]
[OGL LOG][Proc: 0]Uz_matrix: call_update: 2.774 [ms]
[OGL LOG][Proc: 0]Uz_rhs: call_update: 0.978 [ms]
[OGL LOG][Preconditioner.H:121] Generate preconditioner BJ MaxBlockSize 1
[OGL LOG][Proc: 0]Uz: init_precond: 1.879 [ms]
[OGL LOG][StoppingCriterion.H:239] Creating stopping criterion with minIter 3 frequency 1
[OGL LOG][Proc: 0]Uz: generate_solver: 0.015 [ms]
[OGL LOG][Proc: 0]Uz: solve: 69.154 [ms]
[OGL LOG][Proc: 0]Uz: copy_x_back: 2.584 [ms]
[OGL LOG][lduLduBase.H:330] 
Statistics:
	Time per iteration: 23051 [mu s]
	Time per residual norm calculation: 1540.000000 [mu s]
	Time per iteration and DOF: 1.827375 [ns]
	Retrieve results bandwidth 2.938000 [GByte/s]
[OGL LOG][Proc: 0]Uz: solve_multi_gpu: 82.063 [ms]
BJcudaGKOBiCGStab:  Solving for Uz, Initial residual = 0.2353732434437996, Final residual = 0.02100131029799513, No Iterations 3
[OGL LOG][Proc: 0]: global_index_init: 0.02 [ms]
[OGL LOG][Proc: 0]p_local_coeffs: call_update: 0 [ms]
[OGL LOG][Proc: 0]p_non_local_coeffs: call_update: 0 [ms]
[OGL LOG][Proc: 0]p: update_local_matrix_data: 29.975 [ms]
[OGL LOG][Proc: 0]p: update_non_local_matrix_data: 0.55 [ms]
[OGL LOG][Proc: 0]p_matrix: call_update: 2.517 [ms]
[OGL LOG][Proc: 0]p_rhs: call_update: 1.197 [ms]
[OGL LOG][Preconditioner.H:121] Generate preconditioner BJ MaxBlockSize 1
[OGL LOG][Proc: 0]p: init_precond: 1.812 [ms]
[OGL LOG][StoppingCriterion.H:239] Creating stopping criterion with minIter 210 frequency 8
[OGL LOG][Proc: 0]p: generate_solver: 0.014 [ms]
[OGL LOG][Proc: 0]p: solve: 3145.858 [ms]
[OGL LOG][Proc: 0]p: copy_x_back: 2.924 [ms]
[OGL LOG][lduLduBase.H:330] 
Statistics:
	Time per iteration: 3507 [mu s]
	Time per residual norm calculation: 1272.000000 [mu s]
	Time per iteration and DOF: 0.278018 [ns]
	Retrieve results bandwidth 2.596000 [GByte/s]
[OGL LOG][Proc: 0]p: solve_multi_gpu: 3156.937 [ms]
BJcudaGKOCG:  Solving for p, Initial residual = 0.2678077392467951, Final residual = 0.002378880723361937, No Iterations 897
time step continuity errors : sum local = 0.0376126938357932, global = 0.001065288409602623, cumulative = 0.01048873822178078
[OGL LOG][Proc: 0]: global_index_init: 0.625 [ms]
[OGL LOG][Proc: 0]nuTilda_local_coeffs: call_update: 0 [ms]
[OGL LOG][Proc: 0]nuTilda_non_local_coeffs: call_update: 0 [ms]
[OGL LOG][Proc: 0]nuTilda: update_local_matrix_data: 41.841 [ms]
[OGL LOG][Proc: 0]nuTilda: update_non_local_matrix_data: 0.628 [ms]
[OGL LOG][Proc: 0]nuTilda_matrix: call_update: 2.361 [ms]
[OGL LOG][Proc: 0]nuTilda_rhs: call_update: 1.12 [ms]
[OGL LOG][Preconditioner.H:121] Generate preconditioner BJ MaxBlockSize 1
[OGL LOG][Proc: 0]nuTilda: init_precond: 1.438 [ms]
[OGL LOG][StoppingCriterion.H:239] Creating stopping criterion with minIter 3 frequency 1
[OGL LOG][Proc: 0]nuTilda: generate_solver: 0.016 [ms]
[OGL LOG][Proc: 0]nuTilda: solve: 65.31999999999999 [ms]
[OGL LOG][Proc: 0]nuTilda: copy_x_back: 2.527 [ms]
[OGL LOG][lduLduBase.H:330] 
Statistics:
	Time per iteration: 32660 [mu s]
	Time per residual norm calculation: 976.000000 [mu s]
	Time per iteration and DOF: 2.589131 [ns]
	Retrieve results bandwidth 3.004000 [GByte/s]
[OGL LOG][Proc: 0]nuTilda: solve_multi_gpu: 76.99299999999999 [ms]
BJcudaGKOBiCGStab:  Solving for nuTilda, Initial residual = 0.03599635207417089, Final residual = 0.002569772667279817, No Iterations 2
ExecutionTime = 230.34 s  ClockTime = 231 s

Time = 10

velocityDampingConstraint velocityDamping damped 308 (0%) of cells, with max limit 300
[OGL LOG][Proc: 0]: global_index_init: 0.054 [ms]
[OGL LOG][Proc: 0]Ux_local_coeffs: call_update: 0 [ms]
[OGL LOG][Proc: 0]Ux_non_local_coeffs: call_update: 0 [ms]
[OGL LOG][Proc: 0]Ux: update_local_matrix_data: 38.403 [ms]
[OGL LOG][Proc: 0]Ux: update_non_local_matrix_data: 0.582 [ms]
[OGL LOG][Proc: 0]Ux_matrix: call_update: 3.158 [ms]
[OGL LOG][Proc: 0]Ux_rhs: call_update: 0.89 [ms]
[OGL LOG][Preconditioner.H:121] Generate preconditioner BJ MaxBlockSize 1
[OGL LOG][Proc: 0]Ux: init_precond: 1.41 [ms]
[OGL LOG][StoppingCriterion.H:239] Creating stopping criterion with minIter 3 frequency 1
[OGL LOG][Proc: 0]Ux: generate_solver: 0.018 [ms]
[OGL LOG][Proc: 0]Ux: solve: 80.90300000000001 [ms]
[OGL LOG][Proc: 0]Ux: copy_x_back: 2.633 [ms]
[OGL LOG][lduLduBase.H:330] 
Statistics:
	Time per iteration: 20225 [mu s]
	Time per residual norm calculation: 1819.000000 [mu s]
	Time per iteration and DOF: 1.603343 [ns]
	Retrieve results bandwidth 2.883000 [GByte/s]
[OGL LOG][Proc: 0]Ux: solve_multi_gpu: 94.48999999999999 [ms]
BJcudaGKOBiCGStab:  Solving for Ux, Initial residual = 0.05420623696949293, Final residual = 0.00296873459028467, No Iterations 4
[OGL LOG][Proc: 0]: global_index_init: 0.213 [ms]
[OGL LOG][Proc: 0]Uy_local_coeffs: call_update: 0 [ms]
[OGL LOG][Proc: 0]Uy_non_local_coeffs: call_update: 0 [ms]
[OGL LOG][Proc: 0]Uy: update_local_matrix_data: 38.276 [ms]
[OGL LOG][Proc: 0]Uy: update_non_local_matrix_data: 0.5580000000000001 [ms]
[OGL LOG][Proc: 0]Uy_matrix: call_update: 3.358 [ms]
[OGL LOG][Proc: 0]Uy_rhs: call_update: 0.96 [ms]
[OGL LOG][Preconditioner.H:121] Generate preconditioner BJ MaxBlockSize 1
[OGL LOG][Proc: 0]Uy: init_precond: 1.434 [ms]
[OGL LOG][StoppingCriterion.H:239] Creating stopping criterion with minIter 4 frequency 1
[OGL LOG][Proc: 0]Uy: generate_solver: 0.014 [ms]
[OGL LOG][Proc: 0]Uy: solve: 72.83199999999999 [ms]
[OGL LOG][Proc: 0]Uy: copy_x_back: 2.514 [ms]
[OGL LOG][lduLduBase.H:330] 
Statistics:
	Time per iteration: 24277 [mu s]
	Time per residual norm calculation: 1617.000000 [mu s]
	Time per iteration and DOF: 1.924566 [ns]
	Retrieve results bandwidth 3.020000 [GByte/s]
[OGL LOG][Proc: 0]Uy: solve_multi_gpu: 86.67100000000001 [ms]
BJcudaGKOBiCGStab:  Solving for Uy, Initial residual = 0.3185654304616329, Final residual = 0.02715397248765258, No Iterations 3
[OGL LOG][Proc: 0]: global_index_init: 0.028 [ms]
[OGL LOG][Proc: 0]Uz_local_coeffs: call_update: 0 [ms]
[OGL LOG][Proc: 0]Uz_non_local_coeffs: call_update: 0 [ms]
[OGL LOG][Proc: 0]Uz: update_local_matrix_data: 38.195 [ms]
[OGL LOG][Proc: 0]Uz: update_non_local_matrix_data: 0.58 [ms]
[OGL LOG][Proc: 0]Uz_matrix: call_update: 2.454 [ms]
[OGL LOG][Proc: 0]Uz_rhs: call_update: 1.072 [ms]
[OGL LOG][Preconditioner.H:121] Generate preconditioner BJ MaxBlockSize 1
[OGL LOG][Proc: 0]Uz: init_precond: 1.865 [ms]
[OGL LOG][StoppingCriterion.H:239] Creating stopping criterion with minIter 3 frequency 1
[OGL LOG][Proc: 0]Uz: generate_solver: 0.015 [ms]
[OGL LOG][Proc: 0]Uz: solve: 86.068 [ms]
[OGL LOG][Proc: 0]Uz: copy_x_back: 2.595 [ms]
[OGL LOG][lduLduBase.H:330] 
Statistics:
	Time per iteration: 17213 [mu s]
	Time per residual norm calculation: 1388.000000 [mu s]
	Time per iteration and DOF: 1.364565 [ns]
	Retrieve results bandwidth 2.925000 [GByte/s]
[OGL LOG][Proc: 0]Uz: solve_multi_gpu: 99.396 [ms]
BJcudaGKOBiCGStab:  Solving for Uz, Initial residual = 0.1013096398983362, Final residual = 0.00259501064417412, No Iterations 5
[OGL LOG][Proc: 0]: global_index_init: 0.02 [ms]
[OGL LOG][Proc: 0]p_local_coeffs: call_update: 0 [ms]
[OGL LOG][Proc: 0]p_non_local_coeffs: call_update: 0 [ms]
[OGL LOG][Proc: 0]p: update_local_matrix_data: 29.384 [ms]
[OGL LOG][Proc: 0]p: update_non_local_matrix_data: 0.59 [ms]
[OGL LOG][Proc: 0]p_matrix: call_update: 2.433 [ms]
[OGL LOG][Proc: 0]p_rhs: call_update: 1.076 [ms]
[OGL LOG][Preconditioner.H:121] Generate preconditioner BJ MaxBlockSize 1
[OGL LOG][Proc: 0]p: init_precond: 1.76 [ms]
[OGL LOG][StoppingCriterion.H:239] Creating stopping criterion with minIter 538 frequency 13
[OGL LOG][Proc: 0]p: generate_solver: 0.016 [ms]
[OGL LOG][Proc: 0]p: solve: 1863.635 [ms]
[OGL LOG][Proc: 0]p: copy_x_back: 2.886 [ms]
[OGL LOG][lduLduBase.H:330] 
Statistics:
	Time per iteration: 3407 [mu s]
	Time per residual norm calculation: 1430.000000 [mu s]
	Time per iteration and DOF: 0.270091 [ns]
	Retrieve results bandwidth 2.630000 [GByte/s]
[OGL LOG][Proc: 0]p: solve_multi_gpu: 1876.831 [ms]
BJcudaGKOCG:  Solving for p, Initial residual = 0.5197910976479505, Final residual = 0.003890790794962861, No Iterations 547
time step continuity errors : sum local = 0.0250444949705021, global = -0.0002283090777158618, cumulative = 0.01026042914406492
[OGL LOG][Proc: 0]: global_index_init: 1.091 [ms]
[OGL LOG][Proc: 0]nuTilda_local_coeffs: call_update: 0 [ms]
[OGL LOG][Proc: 0]nuTilda_non_local_coeffs: call_update: 0 [ms]
[OGL LOG][Proc: 0]nuTilda: update_local_matrix_data: 43.305 [ms]
[OGL LOG][Proc: 0]nuTilda: update_non_local_matrix_data: 0.592 [ms]
[OGL LOG][Proc: 0]nuTilda_matrix: call_update: 1.993 [ms]
[OGL LOG][Proc: 0]nuTilda_rhs: call_update: 1.475 [ms]
[OGL LOG][Preconditioner.H:121] Generate preconditioner BJ MaxBlockSize 1
[OGL LOG][Proc: 0]nuTilda: init_precond: 1.758 [ms]
[OGL LOG][StoppingCriterion.H:239] Creating stopping criterion with minIter 3 frequency 1
[OGL LOG][Proc: 0]nuTilda: generate_solver: 0.016 [ms]
[OGL LOG][Proc: 0]nuTilda: solve: 64.252 [ms]
[OGL LOG][Proc: 0]nuTilda: copy_x_back: 2.571 [ms]
[OGL LOG][lduLduBase.H:330] 
Statistics:
	Time per iteration: 32126 [mu s]
	Time per residual norm calculation: 1425.000000 [mu s]
	Time per iteration and DOF: 2.546798 [ns]
	Retrieve results bandwidth 2.953000 [GByte/s]
[OGL LOG][Proc: 0]nuTilda: solve_multi_gpu: 76.14400000000001 [ms]
BJcudaGKOBiCGStab:  Solving for nuTilda, Initial residual = 0.03006450593765096, Final residual = 0.001951960573046975, No Iterations 2
ExecutionTime = 236.24 s  ClockTime = 237 s

Time = 11

velocityDampingConstraint velocityDamping damped 172 (0%) of cells, with max limit 300
[OGL LOG][Proc: 0]: global_index_init: 0.03 [ms]
[OGL LOG][Proc: 0]Ux_local_coeffs: call_update: 0 [ms]
[OGL LOG][Proc: 0]Ux_non_local_coeffs: call_update: 0 [ms]
[OGL LOG][Proc: 0]Ux: update_local_matrix_data: 39.106 [ms]
[OGL LOG][Proc: 0]Ux: update_non_local_matrix_data: 0.612 [ms]
[OGL LOG][Proc: 0]Ux_matrix: call_update: 2.695 [ms]
[OGL LOG][Proc: 0]Ux_rhs: call_update: 0.947 [ms]
[OGL LOG][Preconditioner.H:121] Generate preconditioner BJ MaxBlockSize 1
[OGL LOG][Proc: 0]Ux: init_precond: 1.427 [ms]
[OGL LOG][StoppingCriterion.H:239] Creating stopping criterion with minIter 4 frequency 1
[OGL LOG][Proc: 0]Ux: generate_solver: 0.026 [ms]
[OGL LOG][Proc: 0]Ux: solve: 69.407 [ms]
[OGL LOG][Proc: 0]Ux: copy_x_back: 2.513 [ms]
[OGL LOG][lduLduBase.H:330] 
Statistics:
	Time per iteration: 23135 [mu s]
	Time per residual norm calculation: 1653.000000 [mu s]
	Time per iteration and DOF: 1.834034 [ns]
	Retrieve results bandwidth 3.021000 [GByte/s]
[OGL LOG][Proc: 0]Ux: solve_multi_gpu: 81.84999999999999 [ms]
BJcudaGKOBiCGStab:  Solving for Ux, Initial residual = 0.06579487239748433, Final residual = 0.006178110600700511, No Iterations 3
[OGL LOG][Proc: 0]: global_index_init: 0.208 [ms]
[OGL LOG][Proc: 0]Uy_local_coeffs: call_update: 0 [ms]
[OGL LOG][Proc: 0]Uy_non_local_coeffs: call_update: 0 [ms]
[OGL LOG][Proc: 0]Uy: update_local_matrix_data: 38.602 [ms]
[OGL LOG][Proc: 0]Uy: update_non_local_matrix_data: 0.579 [ms]
[OGL LOG][Proc: 0]Uy_matrix: call_update: 3.038 [ms]
[OGL LOG][Proc: 0]Uy_rhs: call_update: 0.891 [ms]
[OGL LOG][Preconditioner.H:121] Generate preconditioner BJ MaxBlockSize 1
[OGL LOG][Proc: 0]Uy: init_precond: 1.257 [ms]
[OGL LOG][StoppingCriterion.H:239] Creating stopping criterion with minIter 4 frequency 1
[OGL LOG][Proc: 0]Uy: generate_solver: 0.016 [ms]
[OGL LOG][Proc: 0]Uy: solve: 74.89 [ms]
[OGL LOG][Proc: 0]Uy: copy_x_back: 2.559 [ms]
[OGL LOG][lduLduBase.H:330] 
Statistics:
	Time per iteration: 24963 [mu s]
	Time per residual norm calculation: 1548.000000 [mu s]
	Time per iteration and DOF: 1.978949 [ns]
	Retrieve results bandwidth 2.967000 [GByte/s]
[OGL LOG][Proc: 0]Uy: solve_multi_gpu: 88.31999999999999 [ms]
[...]
[OGL LOG][Proc: 0]: global_index_init: 1.251 [ms]
[OGL LOG][Proc: 0]nuTilda_local_coeffs: call_update: 0 [ms]
[OGL LOG][Proc: 0]nuTilda_non_local_coeffs: call_update: 0 [ms]
[OGL LOG][Proc: 0]nuTilda: update_local_matrix_data: 39.34 [ms]
[OGL LOG][Proc: 0]nuTilda: update_non_local_matrix_data: 0.5679999999999999 [ms]
[OGL LOG][Proc: 0]nuTilda_matrix: call_update: 2.335 [ms]
[OGL LOG][Proc: 0]nuTilda_rhs: call_update: 1.159 [ms]
[OGL LOG][Preconditioner.H:121] Generate preconditioner BJ MaxBlockSize 1
[OGL LOG][Proc: 0]nuTilda: init_precond: 1.942 [ms]
[OGL LOG][StoppingCriterion.H:239] Creating stopping criterion with minIter 3 frequency 1
[OGL LOG][Proc: 0]nuTilda: generate_solver: 0.021 [ms]
[OGL LOG][Proc: 0]nuTilda: solve: 65.581 [ms]
[OGL LOG][Proc: 0]nuTilda: copy_x_back: 2.747 [ms]
[OGL LOG][lduLduBase.H:330] 
Statistics:
	Time per iteration: 32790 [mu s]
	Time per residual norm calculation: 976.000000 [mu s]
	Time per iteration and DOF: 2.599437 [ns]
	Retrieve results bandwidth 2.763000 [GByte/s]
[OGL LOG][Proc: 0]nuTilda: solve_multi_gpu: 81.803 [ms]
BJcudaGKOBiCGStab:  Solving for nuTilda, Initial residual = 0.00929989684180605, Final residual = 0.0006747350809985487, No Iterations 2
bounding nuTilda, min: -0.000262269351603218 max: 0.02948140027226268 average: 0.0009849187790470493
ExecutionTime = 730.6 s  ClockTime = 733 s

Time = 98

velocityDampingConstraint velocityDamping damped 0 (0%) of cells, with max limit 300
[OGL LOG][Proc: 0]: global_index_init: 0.049 [ms]
[OGL LOG][Proc: 0]Ux_local_coeffs: call_update: 0 [ms]
[OGL LOG][Proc: 0]Ux_non_local_coeffs: call_update: 0 [ms]
[OGL LOG][Proc: 0]Ux: update_local_matrix_data: 39.207 [ms]
[OGL LOG][Proc: 0]Ux: update_non_local_matrix_data: 0.589 [ms]
[OGL LOG][Proc: 0]Ux_matrix: call_update: 2.787 [ms]
[OGL LOG][Proc: 0]Ux_rhs: call_update: 1.261 [ms]
[OGL LOG][Preconditioner.H:121] Generate preconditioner BJ MaxBlockSize 1
[OGL LOG][Proc: 0]Ux: init_precond: 1.455 [ms]
[OGL LOG][StoppingCriterion.H:239] Creating stopping criterion with minIter 3 frequency 1
[OGL LOG][Proc: 0]Ux: generate_solver: 0.015 [ms]
[OGL LOG][Proc: 0]Ux: solve: 72.45399999999999 [ms]
[OGL LOG][Proc: 0]Ux: copy_x_back: 2.508 [ms]
[OGL LOG][lduLduBase.H:330] 
Statistics:
	Time per iteration: 24151 [mu s]
	Time per residual norm calculation: 1830.000000 [mu s]
	Time per iteration and DOF: 1.914577 [ns]
	Retrieve results bandwidth 3.027000 [GByte/s]
[OGL LOG][Proc: 0]Ux: solve_multi_gpu: 85.179 [ms]
BJcudaGKOBiCGStab:  Solving for Ux, Initial residual = 0.004146668583034925, Final residual = 0.0004066585365446067, No Iterations 3
[OGL LOG][Proc: 0]: global_index_init: 0.262 [ms]
[OGL LOG][Proc: 0]Uy_local_coeffs: call_update: 0 [ms]
[OGL LOG][Proc: 0]Uy_non_local_coeffs: call_update: 0 [ms]
[OGL LOG][Proc: 0]Uy: update_local_matrix_data: 38.512 [ms]
[OGL LOG][Proc: 0]Uy: update_non_local_matrix_data: 0.612 [ms]
[OGL LOG][Proc: 0]Uy_matrix: call_update: 2.913 [ms]
[OGL LOG][Proc: 0]Uy_rhs: call_update: 3.27 [ms]
[OGL LOG][Preconditioner.H:121] Generate preconditioner BJ MaxBlockSize 1
[OGL LOG][Proc: 0]Uy: init_precond: 1.553 [ms]
[OGL LOG][StoppingCriterion.H:239] Creating stopping criterion with minIter 4 frequency 1
[OGL LOG][Proc: 0]Uy: generate_solver: 0.014 [ms]
[OGL LOG][Proc: 0]Uy: solve: 76.51600000000001 [ms]
[OGL LOG][Proc: 0]Uy: copy_x_back: 3.669 [ms]
[OGL LOG][lduLduBase.H:330] 
Statistics:
	Time per iteration: 25505 [mu s]
	Time per residual norm calculation: 1624.000000 [mu s]
	Time per iteration and DOF: 2.021916 [ns]
	Retrieve results bandwidth 2.069000 [GByte/s]
[OGL LOG][Proc: 0]Uy: solve_multi_gpu: 93.86499999999999 [ms]
BJcudaGKOBiCGStab:  Solving for Uy, Initial residual = 0.0171284297595092, Final residual = 0.00113811978901625, No Iterations 3
[OGL LOG][Proc: 0]: global_index_init: 0.053 [ms]
[OGL LOG][Proc: 0]Uz_local_coeffs: call_update: 0 [ms]
[OGL LOG][Proc: 0]Uz_non_local_coeffs: call_update: 0 [ms]
[OGL LOG][Proc: 0]Uz: update_local_matrix_data: 38.186 [ms]
[OGL LOG][Proc: 0]Uz: update_non_local_matrix_data: 0.625 [ms]
[OGL LOG][Proc: 0]Uz_matrix: call_update: 3.096 [ms]
[OGL LOG][Proc: 0]Uz_rhs: call_update: 0.862 [ms]
[OGL LOG][Preconditioner.H:121] Generate preconditioner BJ MaxBlockSize 1
[OGL LOG][Proc: 0]Uz: init_precond: 1.956 [ms]
[OGL LOG][StoppingCriterion.H:239] Creating stopping criterion with minIter 5 frequency 1
[OGL LOG][Proc: 0]Uz: generate_solver: 0.016 [ms]
[OGL LOG][Proc: 0]Uz: solve: 88.044 [ms]
[OGL LOG][Proc: 0]Uz: copy_x_back: 2.575 [ms]
[OGL LOG][lduLduBase.H:330] 
Statistics:
	Time per iteration: 17608 [mu s]
	Time per residual norm calculation: 1539.000000 [mu s]
	Time per iteration and DOF: 1.395879 [ns]
	Retrieve results bandwidth 2.948000 [GByte/s]
[OGL LOG][Proc: 0]Uz: solve_multi_gpu: 102.343 [ms]
BJcudaGKOBiCGStab:  Solving for Uz, Initial residual = 0.01899985334482041, Final residual = 0.0003227092466418145, No Iterations 5
[OGL LOG][Proc: 0]: global_index_init: 0.045 [ms]
[OGL LOG][Proc: 0]p_local_coeffs: call_update: 0 [ms]
[OGL LOG][Proc: 0]p_non_local_coeffs: call_update: 0 [ms]
[OGL LOG][Proc: 0]p: update_local_matrix_data: 29.435 [ms]
[OGL LOG][Proc: 0]p: update_non_local_matrix_data: 0.62 [ms]
[OGL LOG][Proc: 0]p_matrix: call_update: 2.595 [ms]
[OGL LOG][Proc: 0]p_rhs: call_update: 1.002 [ms]
[OGL LOG][Preconditioner.H:121] Generate preconditioner BJ MaxBlockSize 1
[OGL LOG][Proc: 0]p: init_precond: 1.955 [ms]
[OGL LOG][StoppingCriterion.H:239] Creating stopping criterion with minIter 290 frequency 8
[OGL LOG][Proc: 0]p: generate_solver: 0.019 [ms]
[OGL LOG][Proc: 0]p: solve: 1040.531 [ms]
[OGL LOG][Proc: 0]p: copy_x_back: 2.945 [ms]
[OGL LOG][lduLduBase.H:330] 
Statistics:
	Time per iteration: 3503 [mu s]
	Time per residual norm calculation: 1286.000000 [mu s]
	Time per iteration and DOF: 0.277701 [ns]
	Retrieve results bandwidth 2.578000 [GByte/s]
[OGL LOG][Proc: 0]p: solve_multi_gpu: 1052.542 [ms]
BJcudaGKOCG:  Solving for p, Initial residual = 0.07582320194584681, Final residual = 0.0004683051916323969, No Iterations 297
time step continuity errors : sum local = 0.0004457950852700048, global = -6.016150922817193e-05, cumulative = 0.005264206122158399
[OGL LOG][Proc: 0]: global_index_init: 0.022 [ms]
[OGL LOG][Proc: 0]nuTilda_local_coeffs: call_update: 0 [ms]
[OGL LOG][Proc: 0]nuTilda_non_local_coeffs: call_update: 0 [ms]
[OGL LOG][Proc: 0]nuTilda: update_local_matrix_data: 43.732 [ms]
[OGL LOG][Proc: 0]nuTilda: update_non_local_matrix_data: 0.612 [ms]
[OGL LOG][Proc: 0]nuTilda_matrix: call_update: 1.946 [ms]
[OGL LOG][Proc: 0]nuTilda_rhs: call_update: 1.606 [ms]
[OGL LOG][Preconditioner.H:121] Generate preconditioner BJ MaxBlockSize 1
[OGL LOG][Proc: 0]nuTilda: init_precond: 1.712 [ms]
[OGL LOG][StoppingCriterion.H:239] Creating stopping criterion with minIter 3 frequency 1
[OGL LOG][Proc: 0]nuTilda: generate_solver: 0.014 [ms]
[OGL LOG][Proc: 0]nuTilda: solve: 71.417 [ms]
[OGL LOG][Proc: 0]nuTilda: copy_x_back: 2.576 [ms]
[OGL LOG][lduLduBase.H:330] 
Statistics:
	Time per iteration: 23805 [mu s]
	Time per residual norm calculation: 1427.000000 [mu s]
	Time per iteration and DOF: 1.887148 [ns]
	Retrieve results bandwidth 2.947000 [GByte/s]
[OGL LOG][Proc: 0]nuTilda: solve_multi_gpu: 83.01600000000001 [ms]
BJcudaGKOBiCGStab:  Solving for nuTilda, Initial residual = 0.006755825614841006, Final residual = 0.0004726632181334405, No Iterations 3
bounding nuTilda, min: -0.0004152995475741031 max: 0.03010541022358345 average: 0.001010343925596343
ExecutionTime = 735.5700000000001 s  ClockTime = 738 s

Time = 99

velocityDampingConstraint velocityDamping damped 0 (0%) of cells, with max limit 300
[OGL LOG][Proc: 0]: global_index_init: 0.067 [ms]
[OGL LOG][Proc: 0]Ux_local_coeffs: call_update: 0 [ms]
[OGL LOG][Proc: 0]Ux_non_local_coeffs: call_update: 0 [ms]
[OGL LOG][Proc: 0]Ux: update_local_matrix_data: 38.835 [ms]
[OGL LOG][Proc: 0]Ux: update_non_local_matrix_data: 0.628 [ms]
[OGL LOG][Proc: 0]Ux_matrix: call_update: 3.114 [ms]
[OGL LOG][Proc: 0]Ux_rhs: call_update: 0.887 [ms]
[OGL LOG][Preconditioner.H:121] Generate preconditioner BJ MaxBlockSize 1
[OGL LOG][Proc: 0]Ux: init_precond: 1.453 [ms]
[OGL LOG][StoppingCriterion.H:239] Creating stopping criterion with minIter 3 frequency 1
[OGL LOG][Proc: 0]Ux: generate_solver: 0.015 [ms]
[OGL LOG][Proc: 0]Ux: solve: 71.623 [ms]
[OGL LOG][Proc: 0]Ux: copy_x_back: 2.618 [ms]
[OGL LOG][lduLduBase.H:330] 
Statistics:
	Time per iteration: 23874 [mu s]
	Time per residual norm calculation: 1653.000000 [mu s]
	Time per iteration and DOF: 1.892618 [ns]
	Retrieve results bandwidth 2.900000 [GByte/s]
[OGL LOG][Proc: 0]Ux: solve_multi_gpu: 84.834 [ms]
BJcudaGKOBiCGStab:  Solving for Ux, Initial residual = 0.004133754061707799, Final residual = 0.0003531823916915428, No Iterations 3
[OGL LOG][Proc: 0]: global_index_init: 0.194 [ms]
[OGL LOG][Proc: 0]Uy_local_coeffs: call_update: 0 [ms]
[OGL LOG][Proc: 0]Uy_non_local_coeffs: call_update: 0 [ms]
[OGL LOG][Proc: 0]Uy: update_local_matrix_data: 39.149 [ms]
[OGL LOG][Proc: 0]Uy: update_non_local_matrix_data: 0.5659999999999999 [ms]
[OGL LOG][Proc: 0]Uy_matrix: call_update: 2.665 [ms]
[OGL LOG][Proc: 0]Uy_rhs: call_update: 1.106 [ms]
[OGL LOG][Preconditioner.H:121] Generate preconditioner BJ MaxBlockSize 1
[OGL LOG][Proc: 0]Uy: init_precond: 1.429 [ms]
[OGL LOG][StoppingCriterion.H:239] Creating stopping criterion with minIter 4 frequency 1
[OGL LOG][Proc: 0]Uy: generate_solver: 0.016 [ms]
[OGL LOG][Proc: 0]Uy: solve: 76.399 [ms]
[OGL LOG][Proc: 0]Uy: copy_x_back: 2.597 [ms]
[OGL LOG][lduLduBase.H:330] 
Statistics:
	Time per iteration: 25466 [mu s]
	Time per residual norm calculation: 1607.000000 [mu s]
	Time per iteration and DOF: 2.018824 [ns]
	Retrieve results bandwidth 2.923000 [GByte/s]
[OGL LOG][Proc: 0]Uy: solve_multi_gpu: 88.29600000000001 [ms]
BJcudaGKOBiCGStab:  Solving for Uy, Initial residual = 0.01693253315788742, Final residual = 0.001633162143862993, No Iterations 3
[OGL LOG][Proc: 0]: global_index_init: 0.037 [ms]
[OGL LOG][Proc: 0]Uz_local_coeffs: call_update: 0 [ms]
[OGL LOG][Proc: 0]Uz_non_local_coeffs: call_update: 0 [ms]
[OGL LOG][Proc: 0]Uz: update_local_matrix_data: 38.159 [ms]
[OGL LOG][Proc: 0]Uz: update_non_local_matrix_data: 0.5629999999999999 [ms]
[OGL LOG][Proc: 0]Uz_matrix: call_update: 3.218 [ms]
[OGL LOG][Proc: 0]Uz_rhs: call_update: 0.874 [ms]
[OGL LOG][Preconditioner.H:121] Generate preconditioner BJ MaxBlockSize 1
[OGL LOG][Proc: 0]Uz: init_precond: 1.437 [ms]
[OGL LOG][StoppingCriterion.H:239] Creating stopping criterion with minIter 6 frequency 1
[OGL LOG][Proc: 0]Uz: generate_solver: 0.014 [ms]
[OGL LOG][Proc: 0]Uz: solve: 71.354 [ms]
[OGL LOG][Proc: 0]Uz: copy_x_back: 2.576 [ms]
[OGL LOG][lduLduBase.H:330] 
Statistics:
	Time per iteration: 23784 [mu s]
	Time per residual norm calculation: 1587.000000 [mu s]
	Time per iteration and DOF: 1.885483 [ns]
	Retrieve results bandwidth 2.947000 [GByte/s]
[OGL LOG][Proc: 0]Uz: solve_multi_gpu: 85.413 [ms]
BJcudaGKOBiCGStab:  Solving for Uz, Initial residual = 0.01835997119638656, Final residual = 0.001112726895129122, No Iterations 3
[OGL LOG][Proc: 0]: global_index_init: 0.019 [ms]
[OGL LOG][Proc: 0]p_local_coeffs: call_update: 0 [ms]
[OGL LOG][Proc: 0]p_non_local_coeffs: call_update: 0 [ms]
[OGL LOG][Proc: 0]p: update_local_matrix_data: 29.34 [ms]
[OGL LOG][Proc: 0]p: update_non_local_matrix_data: 0.596 [ms]
[OGL LOG][Proc: 0]p_matrix: call_update: 2.532 [ms]
[OGL LOG][Proc: 0]p_rhs: call_update: 1.027 [ms]
[OGL LOG][Preconditioner.H:121] Generate preconditioner BJ MaxBlockSize 1
[OGL LOG][Proc: 0]p: init_precond: 1.937 [ms]
[OGL LOG][StoppingCriterion.H:239] Creating stopping criterion with minIter 178 frequency 7
[OGL LOG][Proc: 0]p: generate_solver: 0.017 [ms]
[OGL LOG][Proc: 0]p: solve: 672.881 [ms]
[OGL LOG][Proc: 0]p: copy_x_back: 2.903 [ms]
[OGL LOG][lduLduBase.H:330] 
Statistics:
	Time per iteration: 3676 [mu s]
	Time per residual norm calculation: 1282.000000 [mu s]
	Time per iteration and DOF: 0.291416 [ns]
	Retrieve results bandwidth 2.615000 [GByte/s]
[OGL LOG][Proc: 0]p: solve_multi_gpu: 686.701 [ms]
BJcudaGKOCG:  Solving for p, Initial residual = 0.06765132443209909, Final residual = 0.0003588844712416856, No Iterations 183
time step continuity errors : sum local = 0.0003401797020400635, global = -4.924559819955901e-05, cumulative = 0.00521496052395884
[OGL LOG][Proc: 0]: global_index_init: 0.025 [ms]
[OGL LOG][Proc: 0]nuTilda_local_coeffs: call_update: 0 [ms]
[OGL LOG][Proc: 0]nuTilda_non_local_coeffs: call_update: 0 [ms]
[OGL LOG][Proc: 0]nuTilda: update_local_matrix_data: 37.463 [ms]
[OGL LOG][Proc: 0]nuTilda: update_non_local_matrix_data: 0.609 [ms]
[OGL LOG][Proc: 0]nuTilda_matrix: call_update: 2.404 [ms]
[OGL LOG][Proc: 0]nuTilda_rhs: call_update: 1.058 [ms]
[OGL LOG][Preconditioner.H:121] Generate preconditioner BJ MaxBlockSize 1
[OGL LOG][Proc: 0]nuTilda: init_precond: 2.48 [ms]
[OGL LOG][StoppingCriterion.H:239] Creating stopping criterion with minIter 3 frequency 1
[OGL LOG][Proc: 0]nuTilda: generate_solver: 0.017 [ms]
[OGL LOG][Proc: 0]nuTilda: solve: 68.255 [ms]
[OGL LOG][Proc: 0]nuTilda: copy_x_back: 2.612 [ms]
[OGL LOG][lduLduBase.H:330] 
Statistics:
	Time per iteration: 34127 [mu s]
	Time per residual norm calculation: 1279.000000 [mu s]
	Time per iteration and DOF: 2.705428 [ns]
	Retrieve results bandwidth 2.906000 [GByte/s]
[OGL LOG][Proc: 0]nuTilda: solve_multi_gpu: 88.998 [ms]
BJcudaGKOBiCGStab:  Solving for nuTilda, Initial residual = 0.009003349479480446, Final residual = 0.0005901458141275681, No Iterations 2
bounding nuTilda, min: -0.0002080240100238328 max: 0.0307728472063113 average: 0.001032767917655281
ExecutionTime = 740.15 s  ClockTime = 742 s

Time = 100

velocityDampingConstraint velocityDamping damped 0 (0%) of cells, with max limit 300
[OGL LOG][Proc: 0]: global_index_init: 0.062 [ms]
[OGL LOG][Proc: 0]Ux_local_coeffs: call_update: 0 [ms]
[OGL LOG][Proc: 0]Ux_non_local_coeffs: call_update: 0 [ms]
[OGL LOG][Proc: 0]Ux: update_local_matrix_data: 40.331 [ms]
[OGL LOG][Proc: 0]Ux: update_non_local_matrix_data: 0.545 [ms]
[OGL LOG][Proc: 0]Ux_matrix: call_update: 2.694 [ms]
[OGL LOG][Proc: 0]Ux_rhs: call_update: 0.966 [ms]
[OGL LOG][Preconditioner.H:121] Generate preconditioner BJ MaxBlockSize 1
[OGL LOG][Proc: 0]Ux: init_precond: 2.03 [ms]
[OGL LOG][StoppingCriterion.H:239] Creating stopping criterion with minIter 3 frequency 1
[OGL LOG][Proc: 0]Ux: generate_solver: 0.017 [ms]
[OGL LOG][Proc: 0]Ux: solve: 70.652 [ms]
[OGL LOG][Proc: 0]Ux: copy_x_back: 2.599 [ms]
[OGL LOG][lduLduBase.H:330] 
Statistics:
	Time per iteration: 23550 [mu s]
	Time per residual norm calculation: 1649.000000 [mu s]
	Time per iteration and DOF: 1.866933 [ns]
	Retrieve results bandwidth 2.921000 [GByte/s]
[OGL LOG][Proc: 0]Ux: solve_multi_gpu: 83.113 [ms]
BJcudaGKOBiCGStab:  Solving for Ux, Initial residual = 0.004069137519315198, Final residual = 0.0003863095950912163, No Iterations 3
[OGL LOG][Proc: 0]: global_index_init: 0.195 [ms]
[OGL LOG][Proc: 0]Uy_local_coeffs: call_update: 0 [ms]
[OGL LOG][Proc: 0]Uy_non_local_coeffs: call_update: 0 [ms]
[OGL LOG][Proc: 0]Uy: update_local_matrix_data: 38.8 [ms]
[OGL LOG][Proc: 0]Uy: update_non_local_matrix_data: 0.544 [ms]
[OGL LOG][Proc: 0]Uy_matrix: call_update: 2.64 [ms]
[OGL LOG][Proc: 0]Uy_rhs: call_update: 1.065 [ms]
[OGL LOG][Preconditioner.H:121] Generate preconditioner BJ MaxBlockSize 1
[OGL LOG][Proc: 0]Uy: init_precond: 2.027 [ms]
[OGL LOG][StoppingCriterion.H:239] Creating stopping criterion with minIter 4 frequency 1
[OGL LOG][Proc: 0]Uy: generate_solver: 0.018 [ms]
[OGL LOG][Proc: 0]Uy: solve: 74.108 [ms]
[OGL LOG][Proc: 0]Uy: copy_x_back: 2.669 [ms]
[OGL LOG][lduLduBase.H:330] 
Statistics:
	Time per iteration: 24702 [mu s]
	Time per residual norm calculation: 1681.000000 [mu s]
	Time per iteration and DOF: 1.958258 [ns]
	Retrieve results bandwidth 2.844000 [GByte/s]
[OGL LOG][Proc: 0]Uy: solve_multi_gpu: 86.65900000000001 [ms]
BJcudaGKOBiCGStab:  Solving for Uy, Initial residual = 0.01686422883477418, Final residual = 0.001397606943392095, No Iterations 3
[OGL LOG][Proc: 0]: global_index_init: 0.058 [ms]
[OGL LOG][Proc: 0]Uz_local_coeffs: call_update: 0 [ms]
[OGL LOG][Proc: 0]Uz_non_local_coeffs: call_update: 0 [ms]
[OGL LOG][Proc: 0]Uz: update_local_matrix_data: 39.334 [ms]
[OGL LOG][Proc: 0]Uz: update_non_local_matrix_data: 0.594 [ms]
[OGL LOG][Proc: 0]Uz_matrix: call_update: 2.552 [ms]
[OGL LOG][Proc: 0]Uz_rhs: call_update: 1.209 [ms]
[OGL LOG][Preconditioner.H:121] Generate preconditioner BJ MaxBlockSize 1
[OGL LOG][Proc: 0]Uz: init_precond: 1.792 [ms]
[OGL LOG][StoppingCriterion.H:239] Creating stopping criterion with minIter 4 frequency 1
[OGL LOG][Proc: 0]Uz: generate_solver: 0.014 [ms]
[OGL LOG][Proc: 0]Uz: solve: 69.21899999999999 [ms]
[OGL LOG][Proc: 0]Uz: copy_x_back: 2.685 [ms]
[OGL LOG][lduLduBase.H:330] 
Statistics:
	Time per iteration: 23073 [mu s]
	Time per residual norm calculation: 1704.000000 [mu s]
	Time per iteration and DOF: 1.829119 [ns]
	Retrieve results bandwidth 2.827000 [GByte/s]
[OGL LOG][Proc: 0]Uz: solve_multi_gpu: 82.318 [ms]
BJcudaGKOBiCGStab:  Solving for Uz, Initial residual = 0.01847049646821183, Final residual = 0.001306286716683468, No Iterations 3
[OGL LOG][Proc: 0]: global_index_init: 0.07199999999999999 [ms]
[OGL LOG][Proc: 0]p_local_coeffs: call_update: 0 [ms]
[OGL LOG][Proc: 0]p_non_local_coeffs: call_update: 0 [ms]
[OGL LOG][Proc: 0]p: update_local_matrix_data: 30.351 [ms]
[OGL LOG][Proc: 0]p: update_non_local_matrix_data: 0.584 [ms]
[OGL LOG][Proc: 0]p_matrix: call_update: 2.476 [ms]
[OGL LOG][Proc: 0]p_rhs: call_update: 1.071 [ms]
[OGL LOG][Preconditioner.H:121] Generate preconditioner BJ MaxBlockSize 1
[OGL LOG][Proc: 0]p: init_precond: 1.914 [ms]
[OGL LOG][StoppingCriterion.H:239] Creating stopping criterion with minIter 109 frequency 6
[OGL LOG][Proc: 0]p: generate_solver: 0.017 [ms]
[OGL LOG][Proc: 0]p: solve: 541.371 [ms]
[OGL LOG][Proc: 0]p: copy_x_back: 2.985 [ms]
[OGL LOG][lduLduBase.H:330] 
Statistics:
	Time per iteration: 3894 [mu s]
	Time per residual norm calculation: 1127.000000 [mu s]
	Time per iteration and DOF: 0.308698 [ns]
	Retrieve results bandwidth 2.543000 [GByte/s]
[OGL LOG][Proc: 0]p: solve_multi_gpu: 554.282 [ms]
BJcudaGKOCG:  Solving for p, Initial residual = 0.06384529571542429, Final residual = 0.0006174173361428739, No Iterations 139
time step continuity errors : sum local = 0.000578945242357252, global = -3.474025556242673e-05, cumulative = 0.005180220268396414
[OGL LOG][Proc: 0]: global_index_init: 0.024 [ms]
[OGL LOG][Proc: 0]nuTilda_local_coeffs: call_update: 0 [ms]
[OGL LOG][Proc: 0]nuTilda_non_local_coeffs: call_update: 0 [ms]
[OGL LOG][Proc: 0]nuTilda: update_local_matrix_data: 36.894 [ms]
[OGL LOG][Proc: 0]nuTilda: update_non_local_matrix_data: 0.595 [ms]
[OGL LOG][Proc: 0]nuTilda_matrix: call_update: 2.154 [ms]
[OGL LOG][Proc: 0]nuTilda_rhs: call_update: 1.365 [ms]
[OGL LOG][Preconditioner.H:121] Generate preconditioner BJ MaxBlockSize 1
[OGL LOG][Proc: 0]nuTilda: init_precond: 1.726 [ms]
[OGL LOG][StoppingCriterion.H:239] Creating stopping criterion with minIter 3 frequency 1
[OGL LOG][Proc: 0]nuTilda: generate_solver: 0.015 [ms]
[OGL LOG][Proc: 0]nuTilda: solve: 71.248 [ms]
[OGL LOG][Proc: 0]nuTilda: copy_x_back: 2.644 [ms]
[OGL LOG][lduLduBase.H:330] 
Statistics:
	Time per iteration: 23749 [mu s]
	Time per residual norm calculation: 1431.000000 [mu s]
	Time per iteration and DOF: 1.882709 [ns]
	Retrieve results bandwidth 2.871000 [GByte/s]
[OGL LOG][Proc: 0]nuTilda: solve_multi_gpu: 91.818 [ms]
BJcudaGKOBiCGStab:  Solving for nuTilda, Initial residual = 0.0066348078058647, Final residual = 0.0005016138680693991, No Iterations 3
bounding nuTilda, min: -0.004004243964365193 max: 0.03145650569318276 average: 0.001032848485976011
ExecutionTime = 744.6 s  ClockTime = 747 s

End

Finalising parallel run
