/*---------------------------------------------------------------------------*\
| =========                 |                                                 |
| \\      /  F ield         | OpenFOAM: The Open Source CFD Toolbox           |
|  \\    /   O peration     | Version:  2306                                  |
|   \\  /    A nd           | Website:  www.openfoam.com                      |
|    \\/     M anipulation  |                                                 |
\*---------------------------------------------------------------------------*/
Build  : a6e826bd55-20230630 OPENFOAM=2306 version=v2306
Arch   : "LSB;label=32;scalar=64"
Exec   : icoFoam -parallel -case /tmp/lidDrivenCavity/workspace/ff3f4c24b91877e56b2413c124d687f4/case
Date   : Jan 09 2024
Time   : 22:08:14
Host   : nla-gpu2.ianm.kit.edu
PID    : 400588
I/O    : uncollated
Case   : /tmp/lidDrivenCavity/workspace/ff3f4c24b91877e56b2413c124d687f4/case
nProcs : 16
Hosts  :
(
    (nla-gpu2.ianm.kit.edu 16)
)
Pstream initialized with:
    floatTransfer      : false
    nProcsSimpleSum    : 0
    nonBlockingExchange: 0 (tuning: 0)
    exchange algorithm : -1
    commsType          : nonBlocking
    polling iterations : 0
trapFpe: Floating point exception trapping enabled (FOAM_SIGFPE).
fileModificationChecking : Monitoring run-time modified files using timeStampMaster (fileModificationSkew 5, maxFileModificationPolls 20)
allowSystemOperations : Allowing user-supplied system call operations

// * * * * * * * * * * * * * * * * * * * * * * * * * * * * * * * * * * * * * //
Create time

--> FOAM Warning : 
    From void* Foam::dlLibraryTable::openLibrary(const Foam::fileName&, bool)
    in file db/dynamicLibrary/dlLibraryTable/dlLibraryTable.C at line 188
    Could not load "libpetscFoam.so"
libpetscFoam.so: cannot open shared object file: No such file or directory
Create mesh for time = 0


PISO: Operating solver in PISO mode

Reading transportProperties

Reading field p

Reading field U

Reading/calculating face flux field phi


Starting time loop

Time = 0.00025

Courant Number mean: 8.24341e-18 max: 2.08167e-14
[INFO] MatrixAssemblyU: 73.509 [ms]
DILUPBiCGStab:  Solving for Ux, Initial residual = 1, Final residual = 0.00994539, No Iterations 5
DILUPBiCGStab:  Solving for Uy:  solution singularity
DILUPBiCGStab:  Solving for Uz:  solution singularity
[INFO] MomentumPredictor: 284.457 [ms]
[INFO] MatrixAssemblyPI: 70.555 [ms]
[INFO] AdjustPhi: 6.62 [ms]
[INFO] ConstrainPressure: 0.016 [ms]
[INFO] MatrixAssemblyPII: 19.558 [ms]
[OGL LOG][lduLduBase.H:119] Initialising OGL
	OGL commit:  82f220c+
	Branch: feat/on_device_permute 
	Build type: Release
	Ginkgo version: 1.8.0 ( develop)
	Ginkgo commit: sparse-communicator
	MPI is GPU aware: 1
	Forces host buffer based communication: 0
	CPU ranks per GPU: 1
	Matrix format: Ell
	End OGL_INFO
[OGL LOG][Proc: 0]: global_index_init: 11.411 [ms]
[OGL LOG][Proc: 0]p_local_cols: call_init: 0.045 [ms]
[OGL LOG][Proc: 0]p_local_rows: call_init: 0.014 [ms]
[OGL LOG][Proc: 0]p_local_ldu_map: call_init: 0.008 [ms]
[OGL LOG][Proc: 0]p_local_coeffs: call_init: 0.128 [ms]
[OGL LOG][Proc: 0]p_non_local_cols: call_init: 0.005 [ms]
[OGL LOG][Proc: 0]p_non_local_rows: call_init: 0.002 [ms]
[OGL LOG][Proc: 0]p_non_local_ldu_map: call_init: 0.002 [ms]
[OGL LOG][Proc: 0]p_non_local_coeffs: call_init: 0.003 [ms]
[OGL LOG][Proc: 0]p: init_local_sparsity_pattern: 129.145 [ms]
[OGL LOG][Proc: 0]p: init_non_local_sparsity_pattern: 2.132 [ms]
[OGL LOG][Proc: 0]p: update_local_matrix_data: 55.192 [ms]
[OGL LOG][Proc: 0]p: update_non_local_matrix_data: 0.088 [ms]
[OGL LOG][Proc: 0]device_partition: call_init: 0.138 [ms]
[OGL LOG][Proc: 0]p_matrix: call_init: 56.849 [ms]
[OGL LOG][Proc: 0]p_rhs: call_init: 4.206 [ms]
[OGL LOG][Proc: 0]p_solution: call_init: 1.553 [ms]
[OGL LOG][Preconditioner.H:271] Generate preconditioner GISAI SparsityPower 1
[OGL LOG][Proc: 0]p: init_precond: 83.867 [ms]
[OGL LOG][StoppingCriterion.H:239] Creating stopping criterion with minIter 0 frequency 1
[OGL LOG][Proc: 0]p: generate_solver: 0.021 [ms]
[OGL LOG][Proc: 0]p: solve: 2808.58 [ms]
[OGL LOG][Proc: 0]p: copy_x_back: 1.691 [ms]
[OGL LOG][lduLduBase.H:330] 
Statistics:
	Time per iteration: 3127 [mu s]
	Time per residual norm calculation: 803.000000 [mu s]
	Time per iteration and DOF: 0.390875 [ns]
	Retrieve results bandwidth 2.365000 [GByte/s]
[OGL LOG][Proc: 0]p: solve_multi_gpu: 2959.21 [ms]
GISAIhipGKOCG:  Solving for p, Initial residual = 1, Final residual = 9.7592e-05, No Iterations 898
[INFO] SolveP: 3398.96 [ms]
time step continuity errors : sum local = 7.49167e-09, global = -1.86319e-22, cumulative = -1.86319e-22
[INFO] ContinuityError: 11.495 [ms]
[INFO] CorrectBoundary: 0.301 [ms]
[INFO] PISOStep: 3535.97 [ms]
[INFO] MatrixAssemblyPI: 71.967 [ms]
[INFO] AdjustPhi: 8.23 [ms]
[INFO] ConstrainPressure: 0.004 [ms]
[INFO] MatrixAssemblyPII: 20.756 [ms]
[OGL LOG][Proc: 0]: global_index_init: 0.528 [ms]
[OGL LOG][Proc: 0]p_local_coeffs: call_update: 0.004 [ms]
[OGL LOG][Proc: 0]p_non_local_coeffs: call_update: 0 [ms]
[OGL LOG][Proc: 0]p: update_local_matrix_data: 13.89 [ms]
[OGL LOG][Proc: 0]p: update_non_local_matrix_data: 0.118 [ms]
[OGL LOG][Proc: 0]p: regenerate_distributed_matrix: 40.87 [ms]
[OGL LOG][Proc: 0]p_matrix: call_update: 41.645 [ms]
[OGL LOG][Proc: 0]p_rhs: call_update: 19.325 [ms]
[OGL LOG][Preconditioner.H:271] Generate preconditioner GISAI SparsityPower 1
[OGL LOG][Proc: 0]p: init_precond: 70.066 [ms]
[OGL LOG][StoppingCriterion.H:239] Creating stopping criterion with minIter 538 frequency 10
[OGL LOG][Proc: 0]p: generate_solver: 0.002 [ms]
[OGL LOG][Proc: 0]p: solve: 949.168 [ms]
[OGL LOG][Proc: 0]p: copy_x_back: 1.641 [ms]
[OGL LOG][lduLduBase.H:330] 
Statistics:
	Time per iteration: 1053 [mu s]
	Time per residual norm calculation: 300.000000 [mu s]
	Time per iteration and DOF: 0.131625 [ns]
	Retrieve results bandwidth 2.437000 [GByte/s]
[OGL LOG][Proc: 0]p: solve_multi_gpu: 1085.17 [ms]
GISAIhipGKOCG:  Solving for p, Initial residual = 0.786391, Final residual = 7.97098e-05, No Iterations 901
[INFO] SolveP: 1104.07 [ms]
time step continuity errors : sum local = 7.64871e-09, global = -6.10068e-22, cumulative = -7.96388e-22
[INFO] ContinuityError: 10.771 [ms]
[INFO] CorrectBoundary: 0.398 [ms]
[INFO] PISOStep: 1243.37 [ms]
[INFO] TimeStep: 5147.4 [ms]
ExecutionTime = 6.09 s  ClockTime = 5 s

Time = 0.0005

Courant Number mean: 0.0159459 max: 0.412549
[INFO] MatrixAssemblyU: 61.195 [ms]
DILUPBiCGStab:  Solving for Ux, Initial residual = 0.129574, Final residual = 0.0054988, No Iterations 5
DILUPBiCGStab:  Solving for Uy, Initial residual = 0.426966, Final residual = 0.0140636, No Iterations 5
DILUPBiCGStab:  Solving for Uz, Initial residual = 0.987071, Final residual = 0.03423, No Iterations 5
[INFO] MomentumPredictor: 534.157 [ms]
[INFO] MatrixAssemblyPI: 67.429 [ms]
[INFO] AdjustPhi: 10.623 [ms]
[INFO] ConstrainPressure: 0.005 [ms]
[INFO] MatrixAssemblyPII: 20.262 [ms]
[OGL LOG][Proc: 0]: global_index_init: 0.95 [ms]
[OGL LOG][Proc: 0]p_local_coeffs: call_update: 0 [ms]
[OGL LOG][Proc: 0]p_non_local_coeffs: call_update: 0 [ms]
[OGL LOG][Proc: 0]p: update_local_matrix_data: 17.485 [ms]
[OGL LOG][Proc: 0]p: update_non_local_matrix_data: 0.135 [ms]
[OGL LOG][Proc: 0]p: regenerate_distributed_matrix: 43.153 [ms]
[OGL LOG][Proc: 0]p_matrix: call_update: 43.918 [ms]
[OGL LOG][Proc: 0]p_rhs: call_update: 5.42 [ms]
[OGL LOG][Preconditioner.H:271] Generate preconditioner GISAI SparsityPower 1
[OGL LOG][Proc: 0]p: init_precond: 67.531 [ms]
[OGL LOG][StoppingCriterion.H:239] Creating stopping criterion with minIter 540 frequency 10
[OGL LOG][Proc: 0]p: generate_solver: 0.002 [ms]
[OGL LOG][Proc: 0]p: solve: 899.095 [ms]
[OGL LOG][Proc: 0]p: copy_x_back: 1.81 [ms]
[OGL LOG][lduLduBase.H:330] 
Statistics:
	Time per iteration: 997 [mu s]
	Time per residual norm calculation: 304.000000 [mu s]
	Time per iteration and DOF: 0.124625 [ns]
	Retrieve results bandwidth 2.209000 [GByte/s]
[OGL LOG][Proc: 0]p: solve_multi_gpu: 1019.32 [ms]
GISAIhipGKOCG:  Solving for p, Initial residual = 0.825145, Final residual = 6.49361e-05, No Iterations 901
[INFO] SolveP: 1040.34 [ms]
time step continuity errors : sum local = 9.56449e-09, global = -1.56823e-21, cumulative = -2.36462e-21
[INFO] ContinuityError: 12.255 [ms]
[INFO] CorrectBoundary: 0.382 [ms]
[INFO] PISOStep: 1177.45 [ms]
[INFO] MatrixAssemblyPI: 66.438 [ms]
[INFO] AdjustPhi: 11.243 [ms]
[INFO] ConstrainPressure: 0.004 [ms]
[INFO] MatrixAssemblyPII: 22.043 [ms]
[OGL LOG][Proc: 0]: global_index_init: 0.481 [ms]
[OGL LOG][Proc: 0]p_local_coeffs: call_update: 0 [ms]
[OGL LOG][Proc: 0]p_non_local_coeffs: call_update: 0 [ms]
[OGL LOG][Proc: 0]p: update_local_matrix_data: 15.012 [ms]
[OGL LOG][Proc: 0]p: update_non_local_matrix_data: 0.124 [ms]
[OGL LOG][Proc: 0]p: regenerate_distributed_matrix: 49.87 [ms]
[OGL LOG][Proc: 0]p_matrix: call_update: 50.687 [ms]
[OGL LOG][Proc: 0]p_rhs: call_update: 3.702 [ms]
[OGL LOG][Preconditioner.H:271] Generate preconditioner GISAI SparsityPower 1
[OGL LOG][Proc: 0]p: init_precond: 71.545 [ms]
[OGL LOG][StoppingCriterion.H:239] Creating stopping criterion with minIter 540 frequency 10
[OGL LOG][Proc: 0]p: generate_solver: 0.003 [ms]
[OGL LOG][Proc: 0]p: solve: 849.798 [ms]
[OGL LOG][Proc: 0]p: copy_x_back: 1.496 [ms]
[OGL LOG][lduLduBase.H:330] 
Statistics:
	Time per iteration: 953 [mu s]
	Time per residual norm calculation: 293.000000 [mu s]
	Time per iteration and DOF: 0.119125 [ns]
	Retrieve results bandwidth 2.673000 [GByte/s]
[OGL LOG][Proc: 0]p: solve_multi_gpu: 979.576 [ms]
GISAIhipGKOCG:  Solving for p, Initial residual = 0.768296, Final residual = 8.16891e-05, No Iterations 891
[INFO] SolveP: 998.289 [ms]
time step continuity errors : sum local = 1.22486e-08, global = -1.18103e-21, cumulative = -3.54565e-21
[INFO] ContinuityError: 7.908 [ms]
[INFO] CorrectBoundary: 0.215 [ms]
[INFO] PISOStep: 1131.62 [ms]
[INFO] TimeStep: 2913.29 [ms]
ExecutionTime = 9.41 s  ClockTime = 8 s

Time = 0.00075

Courant Number mean: 0.0243291 max: 0.472011
[INFO] MatrixAssemblyU: 62.794 [ms]
DILUPBiCGStab:  Solving for Ux, Initial residual = 0.0547781, Final residual = 0.00187249, No Iterations 5
DILUPBiCGStab:  Solving for Uy, Initial residual = 0.182216, Final residual = 0.0076257, No Iterations 5
DILUPBiCGStab:  Solving for Uz, Initial residual = 0.810887, Final residual = 0.0252553, No Iterations 5
[INFO] MomentumPredictor: 550.402 [ms]
[INFO] MatrixAssemblyPI: 67.828 [ms]
[INFO] AdjustPhi: 5.056 [ms]
[INFO] ConstrainPressure: 0.004 [ms]
[INFO] MatrixAssemblyPII: 19.933 [ms]
[OGL LOG][Proc: 0]: global_index_init: 0.443 [ms]
[OGL LOG][Proc: 0]p_local_coeffs: call_update: 0 [ms]
[OGL LOG][Proc: 0]p_non_local_coeffs: call_update: 0 [ms]
[OGL LOG][Proc: 0]p: update_local_matrix_data: 14.873 [ms]
[OGL LOG][Proc: 0]p: update_non_local_matrix_data: 0.076 [ms]
[OGL LOG][Proc: 0]p: regenerate_distributed_matrix: 39.621 [ms]
[OGL LOG][Proc: 0]p_matrix: call_update: 40.437 [ms]
[OGL LOG][Proc: 0]p_rhs: call_update: 6.038 [ms]
[OGL LOG][Preconditioner.H:271] Generate preconditioner GISAI SparsityPower 1
[OGL LOG][Proc: 0]p: init_precond: 74.059 [ms]
[OGL LOG][StoppingCriterion.H:239] Creating stopping criterion with minIter 534 frequency 10
[OGL LOG][Proc: 0]p: generate_solver: 0.003 [ms]
[OGL LOG][Proc: 0]p: solve: 900.202 [ms]
[OGL LOG][Proc: 0]p: copy_x_back: 1.721 [ms]
[OGL LOG][lduLduBase.H:330] 
Statistics:
	Time per iteration: 1010 [mu s]
	Time per residual norm calculation: 298.000000 [mu s]
	Time per iteration and DOF: 0.126250 [ns]
	Retrieve results bandwidth 2.324000 [GByte/s]
[OGL LOG][Proc: 0]p: solve_multi_gpu: 1024.81 [ms]
GISAIhipGKOCG:  Solving for p, Initial residual = 0.849314, Final residual = 8.74303e-05, No Iterations 891
[INFO] SolveP: 1042.87 [ms]
time step continuity errors : sum local = 1.1757e-08, global = -1.07826e-21, cumulative = -4.62391e-21
[INFO] ContinuityError: 7.701 [ms]
[INFO] CorrectBoundary: 0.281 [ms]
[INFO] PISOStep: 1169.9 [ms]
[INFO] MatrixAssemblyPI: 66.098 [ms]
[INFO] AdjustPhi: 4.32 [ms]
[INFO] ConstrainPressure: 0.003 [ms]
[INFO] MatrixAssemblyPII: 19.919 [ms]
[OGL LOG][Proc: 0]: global_index_init: 0.046 [ms]
[OGL LOG][Proc: 0]p_local_coeffs: call_update: 0 [ms]
[OGL LOG][Proc: 0]p_non_local_coeffs: call_update: 0 [ms]
[OGL LOG][Proc: 0]p: update_local_matrix_data: 14.939 [ms]
[OGL LOG][Proc: 0]p: update_non_local_matrix_data: 0.141 [ms]
[OGL LOG][Proc: 0]p: regenerate_distributed_matrix: 52.666 [ms]
[OGL LOG][Proc: 0]p_matrix: call_update: 53.443 [ms]
[OGL LOG][Proc: 0]p_rhs: call_update: 0.54 [ms]
[OGL LOG][Preconditioner.H:271] Generate preconditioner GISAI SparsityPower 1
[OGL LOG][Proc: 0]p: init_precond: 68.453 [ms]
[OGL LOG][StoppingCriterion.H:239] Creating stopping criterion with minIter 534 frequency 10
[OGL LOG][Proc: 0]p: generate_solver: 0.002 [ms]
[OGL LOG][Proc: 0]p: solve: 852.957 [ms]
[OGL LOG][Proc: 0]p: copy_x_back: 1.624 [ms]
[OGL LOG][lduLduBase.H:330] 
Statistics:
	Time per iteration: 957 [mu s]
	Time per residual norm calculation: 295.000000 [mu s]
	Time per iteration and DOF: 0.119625 [ns]
	Retrieve results bandwidth 2.463000 [GByte/s]
[OGL LOG][Proc: 0]p: solve_multi_gpu: 979.154 [ms]
GISAIhipGKOCG:  Solving for p, Initial residual = 0.815707, Final residual = 8.33126e-05, No Iterations 891
[INFO] SolveP: 997.733 [ms]
time step continuity errors : sum local = 1.09625e-08, global = -2.19857e-21, cumulative = -6.82248e-21
[INFO] ContinuityError: 8.118 [ms]
[INFO] CorrectBoundary: 0.382 [ms]
[INFO] PISOStep: 1121.51 [ms]
[INFO] TimeStep: 2912.74 [ms]
ExecutionTime = 12.73 s  ClockTime = 11 s

Time = 0.001

Courant Number mean: 0.0291952 max: 0.467754
[INFO] MatrixAssemblyU: 60.034 [ms]
DILUPBiCGStab:  Solving for Ux, Initial residual = 0.034692, Final residual = 0.00124167, No Iterations 5
DILUPBiCGStab:  Solving for Uy, Initial residual = 0.129105, Final residual = 0.00473247, No Iterations 5
DILUPBiCGStab:  Solving for Uz, Initial residual = 0.610536, Final residual = 0.0152042, No Iterations 5
[INFO] MomentumPredictor: 516.74 [ms]
[INFO] MatrixAssemblyPI: 67.97 [ms]
[INFO] AdjustPhi: 4.159 [ms]
[INFO] ConstrainPressure: 0.004 [ms]
[INFO] MatrixAssemblyPII: 19.953 [ms]
[OGL LOG][Proc: 0]: global_index_init: 0.155 [ms]
[OGL LOG][Proc: 0]p_local_coeffs: call_update: 0 [ms]
[OGL LOG][Proc: 0]p_non_local_coeffs: call_update: 0 [ms]
[OGL LOG][Proc: 0]p: update_local_matrix_data: 14.621 [ms]
[OGL LOG][Proc: 0]p: update_non_local_matrix_data: 0.085 [ms]
[OGL LOG][Proc: 0]p: regenerate_distributed_matrix: 46.008 [ms]
[OGL LOG][Proc: 0]p_matrix: call_update: 46.943 [ms]
[OGL LOG][Proc: 0]p_rhs: call_update: 5.038 [ms]
[OGL LOG][Preconditioner.H:271] Generate preconditioner GISAI SparsityPower 1
[OGL LOG][Proc: 0]p: init_precond: 66.766 [ms]
[OGL LOG][StoppingCriterion.H:239] Creating stopping criterion with minIter 534 frequency 10
[OGL LOG][Proc: 0]p: generate_solver: 0.002 [ms]
[OGL LOG][Proc: 0]p: solve: 545.571 [ms]
[OGL LOG][Proc: 0]p: copy_x_back: 1.59 [ms]
[OGL LOG][lduLduBase.H:330] 
Statistics:
	Time per iteration: 1008 [mu s]
	Time per residual norm calculation: 314.000000 [mu s]
	Time per iteration and DOF: 0.126000 [ns]
	Retrieve results bandwidth 2.515000 [GByte/s]
[OGL LOG][Proc: 0]p: solve_multi_gpu: 668.477 [ms]
GISAIhipGKOCG:  Solving for p, Initial residual = 0.770673, Final residual = 3.52517e-05, No Iterations 541
[INFO] SolveP: 686.12 [ms]
time step continuity errors : sum local = 4.78604e-09, global = -2.89436e-21, cumulative = -9.71684e-21
[INFO] ContinuityError: 8.322 [ms]
[INFO] CorrectBoundary: 0.588 [ms]
[INFO] PISOStep: 813.097 [ms]
[INFO] MatrixAssemblyPI: 65.911 [ms]
[INFO] AdjustPhi: 8.194 [ms]
[INFO] ConstrainPressure: 0.004 [ms]
[INFO] MatrixAssemblyPII: 19.888 [ms]
[OGL LOG][Proc: 0]: global_index_init: 0.404 [ms]
[OGL LOG][Proc: 0]p_local_coeffs: call_update: 0 [ms]
[OGL LOG][Proc: 0]p_non_local_coeffs: call_update: 0 [ms]
[OGL LOG][Proc: 0]p: update_local_matrix_data: 13.671 [ms]
[OGL LOG][Proc: 0]p: update_non_local_matrix_data: 0.146 [ms]
[OGL LOG][Proc: 0]p: regenerate_distributed_matrix: 40.835 [ms]
[OGL LOG][Proc: 0]p_matrix: call_update: 41.822 [ms]
[OGL LOG][Proc: 0]p_rhs: call_update: 7.643 [ms]
[OGL LOG][Preconditioner.H:271] Generate preconditioner GISAI SparsityPower 1
[OGL LOG][Proc: 0]p: init_precond: 67.469 [ms]
[OGL LOG][StoppingCriterion.H:239] Creating stopping criterion with minIter 324 frequency 8
[OGL LOG][Proc: 0]p: generate_solver: 0.002 [ms]
[OGL LOG][Proc: 0]p: solve: 425.891 [ms]
[OGL LOG][Proc: 0]p: copy_x_back: 1.665 [ms]
[OGL LOG][lduLduBase.H:330] 
Statistics:
	Time per iteration: 1002 [mu s]
	Time per residual norm calculation: 294.000000 [mu s]
	Time per iteration and DOF: 0.125250 [ns]
	Retrieve results bandwidth 2.402000 [GByte/s]
[OGL LOG][Proc: 0]p: solve_multi_gpu: 547.467 [ms]
GISAIhipGKOCG:  Solving for p, Initial residual = 0.708049, Final residual = 7.82977e-05, No Iterations 425
[INFO] SolveP: 564.267 [ms]
time step continuity errors : sum local = 9.84002e-09, global = -1.16286e-21, cumulative = -1.08797e-20
[INFO] ContinuityError: 7.626 [ms]
[INFO] CorrectBoundary: 0.342 [ms]
[INFO] PISOStep: 692.638 [ms]
[INFO] TimeStep: 2091.33 [ms]
ExecutionTime = 15.05 s  ClockTime = 13 s

Time = 0.00125

Courant Number mean: 0.0333376 max: 0.472934
[INFO] MatrixAssemblyU: 60.958 [ms]
DILUPBiCGStab:  Solving for Ux, Initial residual = 0.0271308, Final residual = 0.000902547, No Iterations 5
DILUPBiCGStab:  Solving for Uy, Initial residual = 0.0814032, Final residual = 0.00356654, No Iterations 5
DILUPBiCGStab:  Solving for Uz, Initial residual = 0.462439, Final residual = 0.0116975, No Iterations 5
[INFO] MomentumPredictor: 509.132 [ms]
[INFO] MatrixAssemblyPI: 66.938 [ms]
[INFO] AdjustPhi: 5.073 [ms]
[INFO] ConstrainPressure: 0.004 [ms]
[INFO] MatrixAssemblyPII: 19.99 [ms]
[OGL LOG][Proc: 0]: global_index_init: 0.262 [ms]
[OGL LOG][Proc: 0]p_local_coeffs: call_update: 0 [ms]
[OGL LOG][Proc: 0]p_non_local_coeffs: call_update: 0 [ms]
[OGL LOG][Proc: 0]p: update_local_matrix_data: 14.518 [ms]
[OGL LOG][Proc: 0]p: update_non_local_matrix_data: 0.072 [ms]
[OGL LOG][Proc: 0]p: regenerate_distributed_matrix: 42.523 [ms]
[OGL LOG][Proc: 0]p_matrix: call_update: 43.328 [ms]
[OGL LOG][Proc: 0]p_rhs: call_update: 5.829 [ms]
[OGL LOG][Preconditioner.H:271] Generate preconditioner GISAI SparsityPower 1
[OGL LOG][Proc: 0]p: init_precond: 68.444 [ms]
[OGL LOG][StoppingCriterion.H:239] Creating stopping criterion with minIter 255 frequency 7
[OGL LOG][Proc: 0]p: generate_solver: 0.002 [ms]
[OGL LOG][Proc: 0]p: solve: 428.8 [ms]
[OGL LOG][Proc: 0]p: copy_x_back: 1.602 [ms]
[OGL LOG][lduLduBase.H:330] 
Statistics:
	Time per iteration: 1018 [mu s]
	Time per residual norm calculation: 296.000000 [mu s]
	Time per iteration and DOF: 0.127250 [ns]
	Retrieve results bandwidth 2.496000 [GByte/s]
[OGL LOG][Proc: 0]p: solve_multi_gpu: 550.843 [ms]
GISAIhipGKOCG:  Solving for p, Initial residual = 0.776204, Final residual = 8.68757e-05, No Iterations 421
[INFO] SolveP: 568.646 [ms]
time step continuity errors : sum local = 9.00877e-09, global = 7.59972e-24, cumulative = -1.08721e-20
[INFO] ContinuityError: 7.468 [ms]
[INFO] CorrectBoundary: 0.46 [ms]
[INFO] PISOStep: 697.824 [ms]
[INFO] MatrixAssemblyPI: 65.175 [ms]
[INFO] AdjustPhi: 4.613 [ms]
[INFO] ConstrainPressure: 0.004 [ms]
[INFO] MatrixAssemblyPII: 19.639 [ms]
[OGL LOG][Proc: 0]: global_index_init: 0.228 [ms]
[OGL LOG][Proc: 0]p_local_coeffs: call_update: 0 [ms]
[OGL LOG][Proc: 0]p_non_local_coeffs: call_update: 0 [ms]
[OGL LOG][Proc: 0]p: update_local_matrix_data: 13.378 [ms]
[OGL LOG][Proc: 0]p: update_non_local_matrix_data: 0.074 [ms]
[OGL LOG][Proc: 0]p: regenerate_distributed_matrix: 38.952 [ms]
[OGL LOG][Proc: 0]p_matrix: call_update: 39.754 [ms]
[OGL LOG][Proc: 0]p_rhs: call_update: 5.537 [ms]
[OGL LOG][Preconditioner.H:271] Generate preconditioner GISAI SparsityPower 1
[OGL LOG][Proc: 0]p: init_precond: 67.317 [ms]
[OGL LOG][StoppingCriterion.H:239] Creating stopping criterion with minIter 252 frequency 7
[OGL LOG][Proc: 0]p: generate_solver: 0.002 [ms]
[OGL LOG][Proc: 0]p: solve: 422.404 [ms]
[OGL LOG][Proc: 0]p: copy_x_back: 1.662 [ms]
[OGL LOG][lduLduBase.H:330] 
Statistics:
	Time per iteration: 1003 [mu s]
	Time per residual norm calculation: 294.000000 [mu s]
	Time per iteration and DOF: 0.125375 [ns]
	Retrieve results bandwidth 2.406000 [GByte/s]
[OGL LOG][Proc: 0]p: solve_multi_gpu: 540.675 [ms]
GISAIhipGKOCG:  Solving for p, Initial residual = 0.725249, Final residual = 8.51938e-05, No Iterations 421
[INFO] SolveP: 556.763 [ms]
time step continuity errors : sum local = 8.56644e-09, global = 6.70792e-24, cumulative = -1.08654e-20
[INFO] ContinuityError: 7.623 [ms]
[INFO] CorrectBoundary: 0.214 [ms]
[INFO] PISOStep: 679.709 [ms]
[INFO] TimeStep: 1955.54 [ms]
ExecutionTime = 17.19 s  ClockTime = 15 s

Time = 0.0015

Courant Number mean: 0.0366382 max: 0.475557
[INFO] MatrixAssemblyU: 61.411 [ms]
DILUPBiCGStab:  Solving for Ux, Initial residual = 0.0204322, Final residual = 0.000645015, No Iterations 5
DILUPBiCGStab:  Solving for Uy, Initial residual = 0.0658457, Final residual = 0.00244959, No Iterations 5
DILUPBiCGStab:  Solving for Uz, Initial residual = 0.336073, Final residual = 0.00855961, No Iterations 5
[INFO] MomentumPredictor: 518.653 [ms]
[INFO] MatrixAssemblyPI: 67.834 [ms]
[INFO] AdjustPhi: 4.745 [ms]
[INFO] ConstrainPressure: 0.004 [ms]
[INFO] MatrixAssemblyPII: 20.09 [ms]
[OGL LOG][Proc: 0]: global_index_init: 0.529 [ms]
[OGL LOG][Proc: 0]p_local_coeffs: call_update: 0 [ms]
[OGL LOG][Proc: 0]p_non_local_coeffs: call_update: 0 [ms]
[OGL LOG][Proc: 0]p: update_local_matrix_data: 14.05 [ms]
[OGL LOG][Proc: 0]p: update_non_local_matrix_data: 0.08 [ms]
[OGL LOG][Proc: 0]p: regenerate_distributed_matrix: 42.732 [ms]
[OGL LOG][Proc: 0]p_matrix: call_update: 43.505 [ms]
[OGL LOG][Proc: 0]p_rhs: call_update: 7.678 [ms]
[OGL LOG][Preconditioner.H:271] Generate preconditioner GISAI SparsityPower 1
[OGL LOG][Proc: 0]p: init_precond: 67.533 [ms]
[OGL LOG][StoppingCriterion.H:239] Creating stopping criterion with minIter 252 frequency 7
[OGL LOG][Proc: 0]p: generate_solver: 0.002 [ms]
[OGL LOG][Proc: 0]p: solve: 413.994 [ms]
[OGL LOG][Proc: 0]p: copy_x_back: 1.504 [ms]
[OGL LOG][lduLduBase.H:330] 
Statistics:
	Time per iteration: 983 [mu s]
	Time per residual norm calculation: 300.000000 [mu s]
	Time per iteration and DOF: 0.122875 [ns]
	Retrieve results bandwidth 2.659000 [GByte/s]
[OGL LOG][Proc: 0]p: solve_multi_gpu: 536.93 [ms]
GISAIhipGKOCG:  Solving for p, Initial residual = 0.683358, Final residual = 9.08974e-05, No Iterations 421
[INFO] SolveP: 554.543 [ms]
time step continuity errors : sum local = 9.57882e-09, global = -4.65548e-22, cumulative = -1.13309e-20
[INFO] ContinuityError: 7.272 [ms]
[INFO] CorrectBoundary: 0.228 [ms]
[INFO] PISOStep: 679.847 [ms]
[INFO] MatrixAssemblyPI: 65.71 [ms]
[INFO] AdjustPhi: 5.053 [ms]
[INFO] ConstrainPressure: 0.004 [ms]
[INFO] MatrixAssemblyPII: 20.153 [ms]
[OGL LOG][Proc: 0]: global_index_init: 0.072 [ms]
[OGL LOG][Proc: 0]p_local_coeffs: call_update: 0 [ms]
[OGL LOG][Proc: 0]p_non_local_coeffs: call_update: 0 [ms]
[OGL LOG][Proc: 0]p: update_local_matrix_data: 14.035 [ms]
[OGL LOG][Proc: 0]p: update_non_local_matrix_data: 0.077 [ms]
[OGL LOG][Proc: 0]p: regenerate_distributed_matrix: 40.26 [ms]
[OGL LOG][Proc: 0]p_matrix: call_update: 41.039 [ms]
[OGL LOG][Proc: 0]p_rhs: call_update: 5.776 [ms]
[OGL LOG][Preconditioner.H:271] Generate preconditioner GISAI SparsityPower 1
[OGL LOG][Proc: 0]p: init_precond: 68.559 [ms]
[OGL LOG][StoppingCriterion.H:239] Creating stopping criterion with minIter 252 frequency 7
[OGL LOG][Proc: 0]p: generate_solver: 0.002 [ms]
[OGL LOG][Proc: 0]p: solve: 442.945 [ms]
[OGL LOG][Proc: 0]p: copy_x_back: 2.031 [ms]
[OGL LOG][lduLduBase.H:330] 
Statistics:
	Time per iteration: 1052 [mu s]
	Time per residual norm calculation: 300.000000 [mu s]
	Time per iteration and DOF: 0.131500 [ns]
	Retrieve results bandwidth 1.969000 [GByte/s]
[OGL LOG][Proc: 0]p: solve_multi_gpu: 563.813 [ms]
GISAIhipGKOCG:  Solving for p, Initial residual = 0.622922, Final residual = 7.62183e-05, No Iterations 421
[INFO] SolveP: 580.453 [ms]
time step continuity errors : sum local = 7.47726e-09, global = 6.22453e-23, cumulative = -1.12687e-20
[INFO] ContinuityError: 7.909 [ms]
[INFO] CorrectBoundary: 0.966 [ms]
[INFO] PISOStep: 704.552 [ms]
[INFO] TimeStep: 1972.69 [ms]
ExecutionTime = 19.34 s  ClockTime = 17 s

Time = 0.00175

Courant Number mean: 0.0395541 max: 0.477501
[INFO] MatrixAssemblyU: 59.856 [ms]
DILUPBiCGStab:  Solving for Ux, Initial residual = 0.0174368, Final residual = 0.000513001, No Iterations 5
DILUPBiCGStab:  Solving for Uy, Initial residual = 0.0490691, Final residual = 0.00179756, No Iterations 5
DILUPBiCGStab:  Solving for Uz, Initial residual = 0.261381, Final residual = 0.0078533, No Iterations 5
[INFO] MomentumPredictor: 510.037 [ms]
[INFO] MatrixAssemblyPI: 67.804 [ms]
[INFO] AdjustPhi: 5.767 [ms]
[INFO] ConstrainPressure: 0.004 [ms]
[INFO] MatrixAssemblyPII: 20.116 [ms]
[OGL LOG][Proc: 0]: global_index_init: 0.369 [ms]
[OGL LOG][Proc: 0]p_local_coeffs: call_update: 0 [ms]
[OGL LOG][Proc: 0]p_non_local_coeffs: call_update: 0 [ms]
[OGL LOG][Proc: 0]p: update_local_matrix_data: 15.129 [ms]
[OGL LOG][Proc: 0]p: update_non_local_matrix_data: 0.124 [ms]
[OGL LOG][Proc: 0]p: regenerate_distributed_matrix: 45.035 [ms]
[OGL LOG][Proc: 0]p_matrix: call_update: 45.821 [ms]
[OGL LOG][Proc: 0]p_rhs: call_update: 5.142 [ms]
[OGL LOG][Preconditioner.H:271] Generate preconditioner GISAI SparsityPower 1
[OGL LOG][Proc: 0]p: init_precond: 68.54 [ms]
[OGL LOG][StoppingCriterion.H:239] Creating stopping criterion with minIter 252 frequency 7
[OGL LOG][Proc: 0]p: generate_solver: 0.002 [ms]
[OGL LOG][Proc: 0]p: solve: 867.373 [ms]
[OGL LOG][Proc: 0]p: copy_x_back: 1.466 [ms]
[OGL LOG][lduLduBase.H:330] 
Statistics:
	Time per iteration: 1014 [mu s]
	Time per residual norm calculation: 299.000000 [mu s]
	Time per iteration and DOF: 0.126750 [ns]
	Retrieve results bandwidth 2.728000 [GByte/s]
[OGL LOG][Proc: 0]p: solve_multi_gpu: 994.902 [ms]
GISAIhipGKOCG:  Solving for p, Initial residual = 0.679377, Final residual = 9.9969e-05, No Iterations 855
[INFO] SolveP: 1013.25 [ms]
time step continuity errors : sum local = 7.78106e-09, global = -4.1414e-21, cumulative = -1.54101e-20
[INFO] ContinuityError: 8.408 [ms]
[INFO] CorrectBoundary: 0.333 [ms]
[INFO] PISOStep: 1141.21 [ms]
[INFO] MatrixAssemblyPI: 65.376 [ms]
[INFO] AdjustPhi: 8.69 [ms]
[INFO] ConstrainPressure: 0.004 [ms]
[INFO] MatrixAssemblyPII: 19.89 [ms]
[OGL LOG][Proc: 0]: global_index_init: 0.222 [ms]
[OGL LOG][Proc: 0]p_local_coeffs: call_update: 0 [ms]
[OGL LOG][Proc: 0]p_non_local_coeffs: call_update: 0 [ms]
[OGL LOG][Proc: 0]p: update_local_matrix_data: 15.311 [ms]
[OGL LOG][Proc: 0]p: update_non_local_matrix_data: 0.113 [ms]
[OGL LOG][Proc: 0]p: regenerate_distributed_matrix: 39.356 [ms]
[OGL LOG][Proc: 0]p_matrix: call_update: 40.152 [ms]
[OGL LOG][Proc: 0]p_rhs: call_update: 5.841 [ms]
[OGL LOG][Preconditioner.H:271] Generate preconditioner GISAI SparsityPower 1
[OGL LOG][Proc: 0]p: init_precond: 66.809 [ms]
[OGL LOG][StoppingCriterion.H:239] Creating stopping criterion with minIter 513 frequency 10
[OGL LOG][Proc: 0]p: generate_solver: 0.002 [ms]
[OGL LOG][Proc: 0]p: solve: 851.513 [ms]
[OGL LOG][Proc: 0]p: copy_x_back: 1.475 [ms]
[OGL LOG][lduLduBase.H:330] 
Statistics:
	Time per iteration: 988 [mu s]
	Time per residual norm calculation: 293.000000 [mu s]
	Time per iteration and DOF: 0.123500 [ns]
	Retrieve results bandwidth 2.711000 [GByte/s]
[OGL LOG][Proc: 0]p: solve_multi_gpu: 967.804 [ms]
GISAIhipGKOCG:  Solving for p, Initial residual = 0.620096, Final residual = 6.9386e-05, No Iterations 861
[INFO] SolveP: 986.604 [ms]
time step continuity errors : sum local = 5.3727e-09, global = -6.88615e-22, cumulative = -1.60987e-20
[INFO] ContinuityError: 8.738 [ms]
[INFO] CorrectBoundary: 0.231 [ms]
[INFO] PISOStep: 1117.7 [ms]
[INFO] TimeStep: 2837.17 [ms]
ExecutionTime = 22.56 s  ClockTime = 20 s

Time = 0.002

Courant Number mean: 0.0420791 max: 0.479205
[INFO] MatrixAssemblyU: 60.338 [ms]
DILUPBiCGStab:  Solving for Ux, Initial residual = 0.0143017, Final residual = 0.000394687, No Iterations 5
DILUPBiCGStab:  Solving for Uy, Initial residual = 0.0417886, Final residual = 0.00138507, No Iterations 5
DILUPBiCGStab:  Solving for Uz, Initial residual = 0.203988, Final residual = 0.00603313, No Iterations 5
[INFO] MomentumPredictor: 511.4 [ms]
[INFO] MatrixAssemblyPI: 66.704 [ms]
[INFO] AdjustPhi: 11.279 [ms]
[INFO] ConstrainPressure: 0.004 [ms]
[INFO] MatrixAssemblyPII: 19.899 [ms]
[OGL LOG][Proc: 0]: global_index_init: 0.233 [ms]
[OGL LOG][Proc: 0]p_local_coeffs: call_update: 0 [ms]
[OGL LOG][Proc: 0]p_non_local_coeffs: call_update: 0 [ms]
[OGL LOG][Proc: 0]p: update_local_matrix_data: 14.405 [ms]
[OGL LOG][Proc: 0]p: update_non_local_matrix_data: 0.076 [ms]
[OGL LOG][Proc: 0]p: regenerate_distributed_matrix: 38.433 [ms]
[OGL LOG][Proc: 0]p_matrix: call_update: 39.21 [ms]
[OGL LOG][Proc: 0]p_rhs: call_update: 10.672 [ms]
[OGL LOG][Preconditioner.H:271] Generate preconditioner GISAI SparsityPower 1
[OGL LOG][Proc: 0]p: init_precond: 67.269 [ms]
[OGL LOG][StoppingCriterion.H:239] Creating stopping criterion with minIter 516 frequency 10
[OGL LOG][Proc: 0]p: generate_solver: 0.002 [ms]
[OGL LOG][Proc: 0]p: solve: 827.131 [ms]
[OGL LOG][Proc: 0]p: copy_x_back: 1.444 [ms]
[OGL LOG][lduLduBase.H:330] 
Statistics:
	Time per iteration: 960 [mu s]
	Time per residual norm calculation: 295.000000 [mu s]
	Time per iteration and DOF: 0.120000 [ns]
	Retrieve results bandwidth 2.770000 [GByte/s]
[OGL LOG][Proc: 0]p: solve_multi_gpu: 949.277 [ms]
GISAIhipGKOCG:  Solving for p, Initial residual = 0.58821, Final residual = 7.89525e-05, No Iterations 861
[INFO] SolveP: 966.81 [ms]
time step continuity errors : sum local = 5.8455e-09, global = -6.41627e-22, cumulative = -1.67403e-20
[INFO] ContinuityError: 7.639 [ms]
[INFO] CorrectBoundary: 0.213 [ms]
[INFO] PISOStep: 1100.07 [ms]
[INFO] MatrixAssemblyPI: 65.511 [ms]
[INFO] AdjustPhi: 4.226 [ms]
[INFO] ConstrainPressure: 0.004 [ms]
[INFO] MatrixAssemblyPII: 20.017 [ms]
[OGL LOG][Proc: 0]: global_index_init: 0.037 [ms]
[OGL LOG][Proc: 0]p_local_coeffs: call_update: 0 [ms]
[OGL LOG][Proc: 0]p_non_local_coeffs: call_update: 0 [ms]
[OGL LOG][Proc: 0]p: update_local_matrix_data: 15.29 [ms]
[OGL LOG][Proc: 0]p: update_non_local_matrix_data: 0.113 [ms]
[OGL LOG][Proc: 0]p: regenerate_distributed_matrix: 40.901 [ms]
[OGL LOG][Proc: 0]p_matrix: call_update: 41.676 [ms]
[OGL LOG][Proc: 0]p_rhs: call_update: 5.926 [ms]
[OGL LOG][Preconditioner.H:271] Generate preconditioner GISAI SparsityPower 1
[OGL LOG][Proc: 0]p: init_precond: 67.578 [ms]
[OGL LOG][StoppingCriterion.H:239] Creating stopping criterion with minIter 516 frequency 10
[OGL LOG][Proc: 0]p: generate_solver: 0.002 [ms]
[OGL LOG][Proc: 0]p: solve: 835.032 [ms]
[OGL LOG][Proc: 0]p: copy_x_back: 1.556 [ms]
[OGL LOG][lduLduBase.H:330] 
Statistics:
	Time per iteration: 969 [mu s]
	Time per residual norm calculation: 316.000000 [mu s]
	Time per iteration and DOF: 0.121125 [ns]
	Retrieve results bandwidth 2.570000 [GByte/s]
[OGL LOG][Proc: 0]p: solve_multi_gpu: 955.497 [ms]
GISAIhipGKOCG:  Solving for p, Initial residual = 0.530986, Final residual = 8.42691e-05, No Iterations 861
[INFO] SolveP: 973.649 [ms]
time step continuity errors : sum local = 6.22463e-09, global = -1.17309e-21, cumulative = -1.79134e-20
[INFO] ContinuityError: 7.655 [ms]
[INFO] CorrectBoundary: 0.273 [ms]
[INFO] PISOStep: 1099.76 [ms]
[INFO] TimeStep: 2780.01 [ms]
ExecutionTime = 25.72 s  ClockTime = 23 s

Time = 0.00225

Courant Number mean: 0.0443649 max: 0.480355
[INFO] MatrixAssemblyU: 60.961 [ms]
DILUPBiCGStab:  Solving for Ux, Initial residual = 0.0125794, Final residual = 0.000325661, No Iterations 5
DILUPBiCGStab:  Solving for Uy, Initial residual = 0.0336567, Final residual = 0.000983877, No Iterations 5
DILUPBiCGStab:  Solving for Uz, Initial residual = 0.164101, Final residual = 0.005592, No Iterations 5
[INFO] MomentumPredictor: 511.256 [ms]
[INFO] MatrixAssemblyPI: 68.005 [ms]
[INFO] AdjustPhi: 4.007 [ms]
[INFO] ConstrainPressure: 0.003 [ms]
[INFO] MatrixAssemblyPII: 19.884 [ms]
[OGL LOG][Proc: 0]: global_index_init: 0.487 [ms]
[OGL LOG][Proc: 0]p_local_coeffs: call_update: 0 [ms]
[OGL LOG][Proc: 0]p_non_local_coeffs: call_update: 0 [ms]
[OGL LOG][Proc: 0]p: update_local_matrix_data: 14.285 [ms]
[OGL LOG][Proc: 0]p: update_non_local_matrix_data: 0.12 [ms]
[OGL LOG][Proc: 0]p: regenerate_distributed_matrix: 50.232 [ms]
[OGL LOG][Proc: 0]p_matrix: call_update: 51.047 [ms]
[OGL LOG][Proc: 0]p_rhs: call_update: 2.733 [ms]
[OGL LOG][Preconditioner.H:271] Generate preconditioner GISAI SparsityPower 1
[OGL LOG][Proc: 0]p: init_precond: 67.713 [ms]
[OGL LOG][StoppingCriterion.H:239] Creating stopping criterion with minIter 516 frequency 10
[OGL LOG][Proc: 0]p: generate_solver: 0.002 [ms]
[OGL LOG][Proc: 0]p: solve: 816.796 [ms]
[OGL LOG][Proc: 0]p: copy_x_back: 1.47 [ms]
[OGL LOG][lduLduBase.H:330] 
Statistics:
	Time per iteration: 959 [mu s]
	Time per residual norm calculation: 290.000000 [mu s]
	Time per iteration and DOF: 0.119875 [ns]
	Retrieve results bandwidth 2.721000 [GByte/s]
[OGL LOG][Proc: 0]p: solve_multi_gpu: 942.477 [ms]
GISAIhipGKOCG:  Solving for p, Initial residual = 0.57544, Final residual = 8.0671e-05, No Iterations 851
[INFO] SolveP: 960.718 [ms]
time step continuity errors : sum local = 5.17324e-09, global = -3.48344e-21, cumulative = -2.13969e-20
[INFO] ContinuityError: 8.021 [ms]
[INFO] CorrectBoundary: 0.224 [ms]
[INFO] PISOStep: 1085.88 [ms]
[INFO] MatrixAssemblyPI: 65.044 [ms]
[INFO] AdjustPhi: 4.863 [ms]
[INFO] ConstrainPressure: 0.003 [ms]
[INFO] MatrixAssemblyPII: 20.068 [ms]
[OGL LOG][Proc: 0]: global_index_init: 0.181 [ms]
[OGL LOG][Proc: 0]p_local_coeffs: call_update: 0 [ms]
[OGL LOG][Proc: 0]p_non_local_coeffs: call_update: 0 [ms]
[OGL LOG][Proc: 0]p: update_local_matrix_data: 14.051 [ms]
[OGL LOG][Proc: 0]p: update_non_local_matrix_data: 0.083 [ms]
[OGL LOG][Proc: 0]p: regenerate_distributed_matrix: 40.335 [ms]
[OGL LOG][Proc: 0]p_matrix: call_update: 41.095 [ms]
[OGL LOG][Proc: 0]p_rhs: call_update: 5.11 [ms]
[OGL LOG][Preconditioner.H:271] Generate preconditioner GISAI SparsityPower 1
[OGL LOG][Proc: 0]p: init_precond: 67.586 [ms]
[OGL LOG][StoppingCriterion.H:239] Creating stopping criterion with minIter 510 frequency 10
[OGL LOG][Proc: 0]p: generate_solver: 0.002 [ms]
[OGL LOG][Proc: 0]p: solve: 800.578 [ms]
[OGL LOG][Proc: 0]p: copy_x_back: 1.416 [ms]
[OGL LOG][lduLduBase.H:330] 
Statistics:
	Time per iteration: 951 [mu s]
	Time per residual norm calculation: 288.000000 [mu s]
	Time per iteration and DOF: 0.118875 [ns]
	Retrieve results bandwidth 2.824000 [GByte/s]
[OGL LOG][Proc: 0]p: solve_multi_gpu: 918.665 [ms]
GISAIhipGKOCG:  Solving for p, Initial residual = 0.515021, Final residual = 9.88189e-05, No Iterations 841
[INFO] SolveP: 935.875 [ms]
time step continuity errors : sum local = 6.33467e-09, global = -1.50858e-21, cumulative = -2.29054e-20
[INFO] ContinuityError: 7.199 [ms]
[INFO] CorrectBoundary: 0.294 [ms]
[INFO] PISOStep: 1058.31 [ms]
[INFO] TimeStep: 2724.64 [ms]
ExecutionTime = 28.82 s  ClockTime = 25 s

Time = 0.0025

Courant Number mean: 0.0464191 max: 0.48146
[INFO] MatrixAssemblyU: 60.644 [ms]
DILUPBiCGStab:  Solving for Ux, Initial residual = 0.0108271, Final residual = 0.000262328, No Iterations 5
DILUPBiCGStab:  Solving for Uy, Initial residual = 0.0294883, Final residual = 0.000804478, No Iterations 5
DILUPBiCGStab:  Solving for Uz, Initial residual = 0.132673, Final residual = 0.00460081, No Iterations 5
[INFO] MomentumPredictor: 547.268 [ms]
[INFO] MatrixAssemblyPI: 67.661 [ms]
[INFO] AdjustPhi: 4.286 [ms]
[INFO] ConstrainPressure: 0.004 [ms]
[INFO] MatrixAssemblyPII: 19.906 [ms]
[OGL LOG][Proc: 0]: global_index_init: 0.293 [ms]
[OGL LOG][Proc: 0]p_local_coeffs: call_update: 0 [ms]
[OGL LOG][Proc: 0]p_non_local_coeffs: call_update: 0 [ms]
[OGL LOG][Proc: 0]p: update_local_matrix_data: 13.265 [ms]
[OGL LOG][Proc: 0]p: update_non_local_matrix_data: 0.077 [ms]
[OGL LOG][Proc: 0]p: regenerate_distributed_matrix: 40.866 [ms]
[OGL LOG][Proc: 0]p_matrix: call_update: 41.623 [ms]
[OGL LOG][Proc: 0]p_rhs: call_update: 5.668 [ms]
[OGL LOG][Preconditioner.H:271] Generate preconditioner GISAI SparsityPower 1
[OGL LOG][Proc: 0]p: init_precond: 67.576 [ms]
[OGL LOG][StoppingCriterion.H:239] Creating stopping criterion with minIter 504 frequency 10
[OGL LOG][Proc: 0]p: generate_solver: 0.002 [ms]
[OGL LOG][Proc: 0]p: solve: 809.018 [ms]
[OGL LOG][Proc: 0]p: copy_x_back: 1.466 [ms]
[OGL LOG][lduLduBase.H:330] 
Statistics:
	Time per iteration: 950 [mu s]
	Time per residual norm calculation: 300.000000 [mu s]
	Time per iteration and DOF: 0.118750 [ns]
	Retrieve results bandwidth 2.728000 [GByte/s]
[OGL LOG][Proc: 0]p: solve_multi_gpu: 929.921 [ms]
GISAIhipGKOCG:  Solving for p, Initial residual = 0.498718, Final residual = 8.04669e-05, No Iterations 851
[INFO] SolveP: 946.296 [ms]
time step continuity errors : sum local = 5.00829e-09, global = 5.06907e-22, cumulative = -2.23985e-20
[INFO] ContinuityError: 7.487 [ms]
[INFO] CorrectBoundary: 0.245 [ms]
[INFO] PISOStep: 1071.23 [ms]
[INFO] MatrixAssemblyPI: 65.965 [ms]
[INFO] AdjustPhi: 3.713 [ms]
[INFO] ConstrainPressure: 0.004 [ms]
[INFO] MatrixAssemblyPII: 20.127 [ms]
[OGL LOG][Proc: 0]: global_index_init: 0.387 [ms]
[OGL LOG][Proc: 0]p_local_coeffs: call_update: 0 [ms]
[OGL LOG][Proc: 0]p_non_local_coeffs: call_update: 0 [ms]
[OGL LOG][Proc: 0]p: update_local_matrix_data: 13.637 [ms]
[OGL LOG][Proc: 0]p: update_non_local_matrix_data: 0.075 [ms]
[OGL LOG][Proc: 0]p: regenerate_distributed_matrix: 41.127 [ms]
[OGL LOG][Proc: 0]p_matrix: call_update: 41.916 [ms]
[OGL LOG][Proc: 0]p_rhs: call_update: 7.322 [ms]
[OGL LOG][Preconditioner.H:271] Generate preconditioner GISAI SparsityPower 1
[OGL LOG][Proc: 0]p: init_precond: 66.676 [ms]
[OGL LOG][StoppingCriterion.H:239] Creating stopping criterion with minIter 510 frequency 10
[OGL LOG][Proc: 0]p: generate_solver: 0.002 [ms]
[OGL LOG][Proc: 0]p: solve: 843.5 [ms]
[OGL LOG][Proc: 0]p: copy_x_back: 1.436 [ms]
[OGL LOG][lduLduBase.H:330] 
Statistics:
	Time per iteration: 991 [mu s]
	Time per residual norm calculation: 293.000000 [mu s]
	Time per iteration and DOF: 0.123875 [ns]
	Retrieve results bandwidth 2.785000 [GByte/s]
[OGL LOG][Proc: 0]p: solve_multi_gpu: 967.13 [ms]
GISAIhipGKOCG:  Solving for p, Initial residual = 0.446314, Final residual = 7.1573e-05, No Iterations 851
[INFO] SolveP: 983.895 [ms]
time step continuity errors : sum local = 4.43573e-09, global = -2.78731e-22, cumulative = -2.26773e-20
[INFO] ContinuityError: 7.306 [ms]
[INFO] CorrectBoundary: 2.408 [ms]
[INFO] PISOStep: 1110.6 [ms]
[INFO] TimeStep: 2797.63 [ms]
ExecutionTime = 32 s  ClockTime = 28 s

Time = 0.00275

Courant Number mean: 0.0483074 max: 0.482233
[INFO] MatrixAssemblyU: 61.633 [ms]
DILUPBiCGStab:  Solving for Ux, Initial residual = 0.00969636, Final residual = 0.000220376, No Iterations 5
DILUPBiCGStab:  Solving for Uy, Initial residual = 0.0249624, Final residual = 0.000584473, No Iterations 5
DILUPBiCGStab:  Solving for Uz, Initial residual = 0.110859, Final residual = 0.00431255, No Iterations 5
[INFO] MomentumPredictor: 552.026 [ms]
[INFO] MatrixAssemblyPI: 68.649 [ms]
[INFO] AdjustPhi: 4.27 [ms]
[INFO] ConstrainPressure: 0.004 [ms]
[INFO] MatrixAssemblyPII: 19.949 [ms]
[OGL LOG][Proc: 0]: global_index_init: 0.367 [ms]
[OGL LOG][Proc: 0]p_local_coeffs: call_update: 0 [ms]
[OGL LOG][Proc: 0]p_non_local_coeffs: call_update: 0 [ms]
[OGL LOG][Proc: 0]p: update_local_matrix_data: 13.692 [ms]
[OGL LOG][Proc: 0]p: update_non_local_matrix_data: 0.07 [ms]
[OGL LOG][Proc: 0]p: regenerate_distributed_matrix: 51.514 [ms]
[OGL LOG][Proc: 0]p_matrix: call_update: 52.292 [ms]
[OGL LOG][Proc: 0]p_rhs: call_update: 7.084 [ms]
[OGL LOG][Preconditioner.H:271] Generate preconditioner GISAI SparsityPower 1
[OGL LOG][Proc: 0]p: init_precond: 70.202 [ms]
[OGL LOG][StoppingCriterion.H:239] Creating stopping criterion with minIter 510 frequency 10
[OGL LOG][Proc: 0]p: generate_solver: 0.002 [ms]
[OGL LOG][Proc: 0]p: solve: 823.444 [ms]
[OGL LOG][Proc: 0]p: copy_x_back: 1.629 [ms]
[OGL LOG][lduLduBase.H:330] 
Statistics:
	Time per iteration: 967 [mu s]
	Time per residual norm calculation: 300.000000 [mu s]
	Time per iteration and DOF: 0.120875 [ns]
	Retrieve results bandwidth 2.455000 [GByte/s]
[OGL LOG][Proc: 0]p: solve_multi_gpu: 958.219 [ms]
GISAIhipGKOCG:  Solving for p, Initial residual = 0.474418, Final residual = 7.25765e-05, No Iterations 851
[INFO] SolveP: 975.2 [ms]
time step continuity errors : sum local = 4.08043e-09, global = -4.60515e-21, cumulative = -2.72824e-20
[INFO] ContinuityError: 8.89 [ms]
[INFO] CorrectBoundary: 1.079 [ms]
[INFO] PISOStep: 1103.52 [ms]
[INFO] MatrixAssemblyPI: 67.315 [ms]
[INFO] AdjustPhi: 6.387 [ms]
[INFO] ConstrainPressure: 0.003 [ms]
[INFO] MatrixAssemblyPII: 20.061 [ms]
[OGL LOG][Proc: 0]: global_index_init: 0.425 [ms]
[OGL LOG][Proc: 0]p_local_coeffs: call_update: 0 [ms]
[OGL LOG][Proc: 0]p_non_local_coeffs: call_update: 0 [ms]
[OGL LOG][Proc: 0]p: update_local_matrix_data: 13.818 [ms]
[OGL LOG][Proc: 0]p: update_non_local_matrix_data: 0.143 [ms]
[OGL LOG][Proc: 0]p: regenerate_distributed_matrix: 40.655 [ms]
[OGL LOG][Proc: 0]p_matrix: call_update: 41.555 [ms]
[OGL LOG][Proc: 0]p_rhs: call_update: 4.915 [ms]
[OGL LOG][Preconditioner.H:271] Generate preconditioner GISAI SparsityPower 1
[OGL LOG][Proc: 0]p: init_precond: 64.452 [ms]
[OGL LOG][StoppingCriterion.H:239] Creating stopping criterion with minIter 510 frequency 10
[OGL LOG][Proc: 0]p: generate_solver: 0.002 [ms]
[OGL LOG][Proc: 0]p: solve: 817.628 [ms]
[OGL LOG][Proc: 0]p: copy_x_back: 1.998 [ms]
[OGL LOG][lduLduBase.H:330] 
Statistics:
	Time per iteration: 972 [mu s]
	Time per residual norm calculation: 296.000000 [mu s]
	Time per iteration and DOF: 0.121500 [ns]
	Retrieve results bandwidth 2.002000 [GByte/s]
[OGL LOG][Proc: 0]p: solve_multi_gpu: 934.128 [ms]
GISAIhipGKOCG:  Solving for p, Initial residual = 0.42045, Final residual = 9.92619e-05, No Iterations 841
[INFO] SolveP: 951.266 [ms]
time step continuity errors : sum local = 5.58649e-09, global = -1.39023e-21, cumulative = -2.86726e-20
[INFO] ContinuityError: 8.198 [ms]
[INFO] CorrectBoundary: 0.26 [ms]
[INFO] PISOStep: 1078.96 [ms]
[INFO] TimeStep: 2804.26 [ms]
ExecutionTime = 35.17 s  ClockTime = 31 s

Time = 0.003

Courant Number mean: 0.0500404 max: 0.483022
[INFO] MatrixAssemblyU: 58.513 [ms]
DILUPBiCGStab:  Solving for Ux, Initial residual = 0.00860713, Final residual = 0.000183872, No Iterations 5
DILUPBiCGStab:  Solving for Uy, Initial residual = 0.0222996, Final residual = 0.000482625, No Iterations 5
DILUPBiCGStab:  Solving for Uz, Initial residual = 0.092647, Final residual = 0.00365747, No Iterations 5
[INFO] MomentumPredictor: 525.51 [ms]
[INFO] MatrixAssemblyPI: 67.762 [ms]
[INFO] AdjustPhi: 4.354 [ms]
[INFO] ConstrainPressure: 0.004 [ms]
[INFO] MatrixAssemblyPII: 19.576 [ms]
[OGL LOG][Proc: 0]: global_index_init: 0.431 [ms]
[OGL LOG][Proc: 0]p_local_coeffs: call_update: 0 [ms]
[OGL LOG][Proc: 0]p_non_local_coeffs: call_update: 0 [ms]
[OGL LOG][Proc: 0]p: update_local_matrix_data: 12.511 [ms]
[OGL LOG][Proc: 0]p: update_non_local_matrix_data: 0.117 [ms]
[OGL LOG][Proc: 0]p: regenerate_distributed_matrix: 39.492 [ms]
[OGL LOG][Proc: 0]p_matrix: call_update: 40.345 [ms]
[OGL LOG][Proc: 0]p_rhs: call_update: 5.359 [ms]
[OGL LOG][Preconditioner.H:271] Generate preconditioner GISAI SparsityPower 1
[OGL LOG][Proc: 0]p: init_precond: 67.895 [ms]
[OGL LOG][StoppingCriterion.H:239] Creating stopping criterion with minIter 504 frequency 10
[OGL LOG][Proc: 0]p: generate_solver: 0.002 [ms]
[OGL LOG][Proc: 0]p: solve: 822.16 [ms]
[OGL LOG][Proc: 0]p: copy_x_back: 1.438 [ms]
[OGL LOG][lduLduBase.H:330] 
Statistics:
	Time per iteration: 966 [mu s]
	Time per residual norm calculation: 299.000000 [mu s]
	Time per iteration and DOF: 0.120750 [ns]
	Retrieve results bandwidth 2.781000 [GByte/s]
[OGL LOG][Proc: 0]p: solve_multi_gpu: 942.002 [ms]
GISAIhipGKOCG:  Solving for p, Initial residual = 0.417228, Final residual = 6.3696e-05, No Iterations 851
[INFO] SolveP: 958.175 [ms]
time step continuity errors : sum local = 3.4799e-09, global = -2.90165e-21, cumulative = -3.15743e-20
[INFO] ContinuityError: 8.033 [ms]
[INFO] CorrectBoundary: 0.272 [ms]
[INFO] PISOStep: 1083.85 [ms]
[INFO] MatrixAssemblyPI: 65.723 [ms]
[INFO] AdjustPhi: 4.66 [ms]
[INFO] ConstrainPressure: 0.004 [ms]
[INFO] MatrixAssemblyPII: 20.098 [ms]
[OGL LOG][Proc: 0]: global_index_init: 0.184 [ms]
[OGL LOG][Proc: 0]p_local_coeffs: call_update: 0 [ms]
[OGL LOG][Proc: 0]p_non_local_coeffs: call_update: 0 [ms]
[OGL LOG][Proc: 0]p: update_local_matrix_data: 14.39 [ms]
[OGL LOG][Proc: 0]p: update_non_local_matrix_data: 0.083 [ms]
[OGL LOG][Proc: 0]p: regenerate_distributed_matrix: 44.276 [ms]
[OGL LOG][Proc: 0]p_matrix: call_update: 45.065 [ms]
[OGL LOG][Proc: 0]p_rhs: call_update: 10.012 [ms]
[OGL LOG][Preconditioner.H:271] Generate preconditioner GISAI SparsityPower 1
[OGL LOG][Proc: 0]p: init_precond: 68.683 [ms]
[OGL LOG][StoppingCriterion.H:239] Creating stopping criterion with minIter 510 frequency 10
[OGL LOG][Proc: 0]p: generate_solver: 0.003 [ms]
[OGL LOG][Proc: 0]p: solve: 806.792 [ms]
[OGL LOG][Proc: 0]p: copy_x_back: 1.757 [ms]
[OGL LOG][lduLduBase.H:330] 
Statistics:
	Time per iteration: 948 [mu s]
	Time per residual norm calculation: 296.000000 [mu s]
	Time per iteration and DOF: 0.118500 [ns]
	Retrieve results bandwidth 2.276000 [GByte/s]
[OGL LOG][Proc: 0]p: solve_multi_gpu: 935.427 [ms]
GISAIhipGKOCG:  Solving for p, Initial residual = 0.370849, Final residual = 6.37634e-05, No Iterations 851
[INFO] SolveP: 952.562 [ms]
time step continuity errors : sum local = 3.46815e-09, global = 1.55582e-21, cumulative = -3.00185e-20
[INFO] ContinuityError: 7.274 [ms]
[INFO] CorrectBoundary: 0.23 [ms]
[INFO] PISOStep: 1076.49 [ms]
[INFO] TimeStep: 2752.56 [ms]
ExecutionTime = 38.3 s  ClockTime = 34 s

Time = 0.00325

Courant Number mean: 0.0516504 max: 0.483587
[INFO] MatrixAssemblyU: 60.965 [ms]
DILUPBiCGStab:  Solving for Ux, Initial residual = 0.00781055, Final residual = 0.000157024, No Iterations 5
DILUPBiCGStab:  Solving for Uy, Initial residual = 0.0195209, Final residual = 0.000373232, No Iterations 5
DILUPBiCGStab:  Solving for Uz, Initial residual = 0.0791202, Final residual = 0.00340176, No Iterations 5
[INFO] MomentumPredictor: 516.047 [ms]
[INFO] MatrixAssemblyPI: 67.938 [ms]
[INFO] AdjustPhi: 4.42 [ms]
[INFO] ConstrainPressure: 0.003 [ms]
[INFO] MatrixAssemblyPII: 19.753 [ms]
[OGL LOG][Proc: 0]: global_index_init: 0.418 [ms]
[OGL LOG][Proc: 0]p_local_coeffs: call_update: 0 [ms]
[OGL LOG][Proc: 0]p_non_local_coeffs: call_update: 0 [ms]
[OGL LOG][Proc: 0]p: update_local_matrix_data: 14.532 [ms]
[OGL LOG][Proc: 0]p: update_non_local_matrix_data: 0.102 [ms]
[OGL LOG][Proc: 0]p: regenerate_distributed_matrix: 39.213 [ms]
[OGL LOG][Proc: 0]p_matrix: call_update: 40.003 [ms]
[OGL LOG][Proc: 0]p_rhs: call_update: 5.957 [ms]
[OGL LOG][Preconditioner.H:271] Generate preconditioner GISAI SparsityPower 1
[OGL LOG][Proc: 0]p: init_precond: 67.991 [ms]
[OGL LOG][StoppingCriterion.H:239] Creating stopping criterion with minIter 510 frequency 10
[OGL LOG][Proc: 0]p: generate_solver: 0.002 [ms]
[OGL LOG][Proc: 0]p: solve: 810.117 [ms]
[OGL LOG][Proc: 0]p: copy_x_back: 1.476 [ms]
[OGL LOG][lduLduBase.H:330] 
Statistics:
	Time per iteration: 963 [mu s]
	Time per residual norm calculation: 295.000000 [mu s]
	Time per iteration and DOF: 0.120375 [ns]
	Retrieve results bandwidth 2.710000 [GByte/s]
[OGL LOG][Proc: 0]p: solve_multi_gpu: 928.027 [ms]
GISAIhipGKOCG:  Solving for p, Initial residual = 0.386684, Final residual = 9.05463e-05, No Iterations 841
[INFO] SolveP: 945.73 [ms]
time step continuity errors : sum local = 4.62291e-09, global = -2.64243e-21, cumulative = -3.26609e-20
[INFO] ContinuityError: 9.447 [ms]
[INFO] CorrectBoundary: 0.254 [ms]
[INFO] PISOStep: 1073.93 [ms]
[INFO] MatrixAssemblyPI: 65.667 [ms]
[INFO] AdjustPhi: 4.071 [ms]
[INFO] ConstrainPressure: 0.004 [ms]
[INFO] MatrixAssemblyPII: 20.009 [ms]
[OGL LOG][Proc: 0]: global_index_init: 0.246 [ms]
[OGL LOG][Proc: 0]p_local_coeffs: call_update: 0 [ms]
[OGL LOG][Proc: 0]p_non_local_coeffs: call_update: 0 [ms]
[OGL LOG][Proc: 0]p: update_local_matrix_data: 21.258 [ms]
[OGL LOG][Proc: 0]p: update_non_local_matrix_data: 0.104 [ms]
[OGL LOG][Proc: 0]p: regenerate_distributed_matrix: 45.874 [ms]
[OGL LOG][Proc: 0]p_matrix: call_update: 46.748 [ms]
[OGL LOG][Proc: 0]p_rhs: call_update: 5.17 [ms]
[OGL LOG][Preconditioner.H:271] Generate preconditioner GISAI SparsityPower 1
[OGL LOG][Proc: 0]p: init_precond: 68.871 [ms]
[OGL LOG][StoppingCriterion.H:239] Creating stopping criterion with minIter 504 frequency 10
[OGL LOG][Proc: 0]p: generate_solver: 0.002 [ms]
[OGL LOG][Proc: 0]p: solve: 815.778 [ms]
[OGL LOG][Proc: 0]p: copy_x_back: 1.453 [ms]
[OGL LOG][lduLduBase.H:330] 
Statistics:
	Time per iteration: 970 [mu s]
	Time per residual norm calculation: 294.000000 [mu s]
	Time per iteration and DOF: 0.121250 [ns]
	Retrieve results bandwidth 2.752000 [GByte/s]
[OGL LOG][Proc: 0]p: solve_multi_gpu: 939.523 [ms]
GISAIhipGKOCG:  Solving for p, Initial residual = 0.340687, Final residual = 9.46871e-05, No Iterations 841
[INFO] SolveP: 964.047 [ms]
time step continuity errors : sum local = 4.84049e-09, global = -1.80018e-21, cumulative = -3.44611e-20
[INFO] ContinuityError: 8.072 [ms]
[INFO] CorrectBoundary: 0.375 [ms]
[INFO] PISOStep: 1087.04 [ms]
[INFO] TimeStep: 2746.38 [ms]
ExecutionTime = 41.42 s  ClockTime = 37 s

Time = 0.0035

Courant Number mean: 0.0531454 max: 0.484181
[INFO] MatrixAssemblyU: 59.125 [ms]
DILUPBiCGStab:  Solving for Ux, Initial residual = 0.00707761, Final residual = 0.000134799, No Iterations 5
DILUPBiCGStab:  Solving for Uy, Initial residual = 0.0177013, Final residual = 0.000308097, No Iterations 5
DILUPBiCGStab:  Solving for Uz, Initial residual = 0.0681424, Final residual = 0.00295234, No Iterations 5
[INFO] MomentumPredictor: 515.12 [ms]
[INFO] MatrixAssemblyPI: 71.748 [ms]
[INFO] AdjustPhi: 3.622 [ms]
[INFO] ConstrainPressure: 0.004 [ms]
[INFO] MatrixAssemblyPII: 19.939 [ms]
[OGL LOG][Proc: 0]: global_index_init: 0.198 [ms]
[OGL LOG][Proc: 0]p_local_coeffs: call_update: 0 [ms]
[OGL LOG][Proc: 0]p_non_local_coeffs: call_update: 0 [ms]
[OGL LOG][Proc: 0]p: update_local_matrix_data: 14.329 [ms]
[OGL LOG][Proc: 0]p: update_non_local_matrix_data: 0.11 [ms]
[OGL LOG][Proc: 0]p: regenerate_distributed_matrix: 40.645 [ms]
[OGL LOG][Proc: 0]p_matrix: call_update: 41.509 [ms]
[OGL LOG][Proc: 0]p_rhs: call_update: 4.865 [ms]
[OGL LOG][Preconditioner.H:271] Generate preconditioner GISAI SparsityPower 1
[OGL LOG][Proc: 0]p: init_precond: 67.759 [ms]
[OGL LOG][StoppingCriterion.H:239] Creating stopping criterion with minIter 504 frequency 10
[OGL LOG][Proc: 0]p: generate_solver: 0.003 [ms]
[OGL LOG][Proc: 0]p: solve: 840.029 [ms]
[OGL LOG][Proc: 0]p: copy_x_back: 1.694 [ms]
[OGL LOG][lduLduBase.H:330] 
Statistics:
	Time per iteration: 987 [mu s]
	Time per residual norm calculation: 298.000000 [mu s]
	Time per iteration and DOF: 0.123375 [ns]
	Retrieve results bandwidth 2.361000 [GByte/s]
[OGL LOG][Proc: 0]p: solve_multi_gpu: 959.325 [ms]
GISAIhipGKOCG:  Solving for p, Initial residual = 0.34477, Final residual = 5.58445e-05, No Iterations 851
[INFO] SolveP: 976.255 [ms]
time step continuity errors : sum local = 2.75902e-09, global = -1.2106e-21, cumulative = -3.56717e-20
[INFO] ContinuityError: 7.18 [ms]
[INFO] CorrectBoundary: 0.289 [ms]
[INFO] PISOStep: 1104.26 [ms]
[INFO] MatrixAssemblyPI: 65.359 [ms]
[INFO] AdjustPhi: 7.693 [ms]
[INFO] ConstrainPressure: 0.004 [ms]
[INFO] MatrixAssemblyPII: 19.73 [ms]
[OGL LOG][Proc: 0]: global_index_init: 0.227 [ms]
[OGL LOG][Proc: 0]p_local_coeffs: call_update: 0 [ms]
[OGL LOG][Proc: 0]p_non_local_coeffs: call_update: 0 [ms]
[OGL LOG][Proc: 0]p: update_local_matrix_data: 15.14 [ms]
[OGL LOG][Proc: 0]p: update_non_local_matrix_data: 0.082 [ms]
[OGL LOG][Proc: 0]p: regenerate_distributed_matrix: 39.545 [ms]
[OGL LOG][Proc: 0]p_matrix: call_update: 40.356 [ms]
[OGL LOG][Proc: 0]p_rhs: call_update: 6.201 [ms]
[OGL LOG][Preconditioner.H:271] Generate preconditioner GISAI SparsityPower 1
[OGL LOG][Proc: 0]p: init_precond: 68.593 [ms]
[OGL LOG][StoppingCriterion.H:239] Creating stopping criterion with minIter 510 frequency 10
[OGL LOG][Proc: 0]p: generate_solver: 0.002 [ms]
[OGL LOG][Proc: 0]p: solve: 828.52 [ms]
[OGL LOG][Proc: 0]p: copy_x_back: 1.504 [ms]
[OGL LOG][lduLduBase.H:330] 
Statistics:
	Time per iteration: 973 [mu s]
	Time per residual norm calculation: 299.000000 [mu s]
	Time per iteration and DOF: 0.121625 [ns]
	Retrieve results bandwidth 2.659000 [GByte/s]
[OGL LOG][Proc: 0]p: solve_multi_gpu: 947.667 [ms]
GISAIhipGKOCG:  Solving for p, Initial residual = 0.305356, Final residual = 5.67049e-05, No Iterations 851
[INFO] SolveP: 965.838 [ms]
time step continuity errors : sum local = 2.79046e-09, global = -4.06822e-21, cumulative = -3.97399e-20
[INFO] ContinuityError: 7.776 [ms]
[INFO] CorrectBoundary: 0.25 [ms]
[INFO] PISOStep: 1092.2 [ms]
[INFO] TimeStep: 2778.61 [ms]
ExecutionTime = 44.58 s  ClockTime = 39 s

Time = 0.00375

Courant Number mean: 0.0545471 max: 0.484622
[INFO] MatrixAssemblyU: 60.228 [ms]
DILUPBiCGStab:  Solving for Ux, Initial residual = 0.00648924, Final residual = 0.000116782, No Iterations 5
DILUPBiCGStab:  Solving for Uy, Initial residual = 0.0158591, Final residual = 0.000257287, No Iterations 5
DILUPBiCGStab:  Solving for Uz, Initial residual = 0.0590172, Final residual = 0.00269961, No Iterations 5
[INFO] MomentumPredictor: 518.612 [ms]
[INFO] MatrixAssemblyPI: 67.516 [ms]
[INFO] AdjustPhi: 4.17 [ms]
[INFO] ConstrainPressure: 0.004 [ms]
[INFO] MatrixAssemblyPII: 19.877 [ms]
[OGL LOG][Proc: 0]: global_index_init: 0.615 [ms]
[OGL LOG][Proc: 0]p_local_coeffs: call_update: 0 [ms]
[OGL LOG][Proc: 0]p_non_local_coeffs: call_update: 0 [ms]
[OGL LOG][Proc: 0]p: update_local_matrix_data: 18.47 [ms]
[OGL LOG][Proc: 0]p: update_non_local_matrix_data: 0.076 [ms]
[OGL LOG][Proc: 0]p: regenerate_distributed_matrix: 41.603 [ms]
[OGL LOG][Proc: 0]p_matrix: call_update: 42.389 [ms]
[OGL LOG][Proc: 0]p_rhs: call_update: 5.819 [ms]
[OGL LOG][Preconditioner.H:271] Generate preconditioner GISAI SparsityPower 1
[OGL LOG][Proc: 0]p: init_precond: 68.525 [ms]
[OGL LOG][StoppingCriterion.H:239] Creating stopping criterion with minIter 510 frequency 10
[OGL LOG][Proc: 0]p: generate_solver: 0.002 [ms]
[OGL LOG][Proc: 0]p: solve: 800.27 [ms]
[OGL LOG][Proc: 0]p: copy_x_back: 1.432 [ms]
[OGL LOG][lduLduBase.H:330] 
Statistics:
	Time per iteration: 951 [mu s]
	Time per residual norm calculation: 294.000000 [mu s]
	Time per iteration and DOF: 0.118875 [ns]
	Retrieve results bandwidth 2.793000 [GByte/s]
[OGL LOG][Proc: 0]p: solve_multi_gpu: 921.179 [ms]
GISAIhipGKOCG:  Solving for p, Initial residual = 0.312254, Final residual = 7.24357e-05, No Iterations 841
[INFO] SolveP: 943.009 [ms]
time step continuity errors : sum local = 3.43259e-09, global = -2.64168e-21, cumulative = -4.23816e-20
[INFO] ContinuityError: 8.213 [ms]
[INFO] CorrectBoundary: 0.263 [ms]
[INFO] PISOStep: 1068.44 [ms]
[INFO] MatrixAssemblyPI: 65.748 [ms]
[INFO] AdjustPhi: 4.843 [ms]
[INFO] ConstrainPressure: 0.004 [ms]
[INFO] MatrixAssemblyPII: 19.84 [ms]
[OGL LOG][Proc: 0]: global_index_init: 0.439 [ms]
[OGL LOG][Proc: 0]p_local_coeffs: call_update: 0 [ms]
[OGL LOG][Proc: 0]p_non_local_coeffs: call_update: 0 [ms]
[OGL LOG][Proc: 0]p: update_local_matrix_data: 14.988 [ms]
[OGL LOG][Proc: 0]p: update_non_local_matrix_data: 0.085 [ms]
[OGL LOG][Proc: 0]p: regenerate_distributed_matrix: 53.176 [ms]
[OGL LOG][Proc: 0]p_matrix: call_update: 53.972 [ms]
[OGL LOG][Proc: 0]p_rhs: call_update: 4.639 [ms]
[OGL LOG][Preconditioner.H:271] Generate preconditioner GISAI SparsityPower 1
[OGL LOG][Proc: 0]p: init_precond: 68.203 [ms]
[OGL LOG][StoppingCriterion.H:239] Creating stopping criterion with minIter 504 frequency 10
[OGL LOG][Proc: 0]p: generate_solver: 0.002 [ms]
[OGL LOG][Proc: 0]p: solve: 496.043 [ms]
[OGL LOG][Proc: 0]p: copy_x_back: 1.464 [ms]
[OGL LOG][lduLduBase.H:330] 
Statistics:
	Time per iteration: 970 [mu s]
	Time per residual norm calculation: 309.000000 [mu s]
	Time per iteration and DOF: 0.121250 [ns]
	Retrieve results bandwidth 2.732000 [GByte/s]
[OGL LOG][Proc: 0]p: solve_multi_gpu: 626.571 [ms]
GISAIhipGKOCG:  Solving for p, Initial residual = 0.274399, Final residual = 8.77055e-05, No Iterations 511
[INFO] SolveP: 644.609 [ms]
time step continuity errors : sum local = 4.38552e-09, global = -3.27711e-21, cumulative = -4.56587e-20
[INFO] ContinuityError: 7.598 [ms]
[INFO] CorrectBoundary: 0.326 [ms]
[INFO] PISOStep: 767.958 [ms]
[INFO] TimeStep: 2423.19 [ms]
ExecutionTime = 47.3 s  ClockTime = 42 s

Time = 0.004

Courant Number mean: 0.0558603 max: 0.485085
[INFO] MatrixAssemblyU: 64.49 [ms]
DILUPBiCGStab:  Solving for Ux, Initial residual = 0.00597238, Final residual = 0.000102608, No Iterations 5
DILUPBiCGStab:  Solving for Uy, Initial residual = 0.014548, Final residual = 0.000216313, No Iterations 5
DILUPBiCGStab:  Solving for Uz, Initial residual = 0.0525346, Final residual = 0.00239804, No Iterations 5
[INFO] MomentumPredictor: 521.46 [ms]
[INFO] MatrixAssemblyPI: 67.722 [ms]
[INFO] AdjustPhi: 4.831 [ms]
[INFO] ConstrainPressure: 0.003 [ms]
[INFO] MatrixAssemblyPII: 19.939 [ms]
[OGL LOG][Proc: 0]: global_index_init: 0.367 [ms]
[OGL LOG][Proc: 0]p_local_coeffs: call_update: 0 [ms]
[OGL LOG][Proc: 0]p_non_local_coeffs: call_update: 0 [ms]
[OGL LOG][Proc: 0]p: update_local_matrix_data: 13.976 [ms]
[OGL LOG][Proc: 0]p: update_non_local_matrix_data: 0.078 [ms]
[OGL LOG][Proc: 0]p: regenerate_distributed_matrix: 38.812 [ms]
[OGL LOG][Proc: 0]p_matrix: call_update: 39.593 [ms]
[OGL LOG][Proc: 0]p_rhs: call_update: 5.994 [ms]
[OGL LOG][Preconditioner.H:271] Generate preconditioner GISAI SparsityPower 1
[OGL LOG][Proc: 0]p: init_precond: 67.38 [ms]
[OGL LOG][StoppingCriterion.H:239] Creating stopping criterion with minIter 306 frequency 8
[OGL LOG][Proc: 0]p: generate_solver: 0.002 [ms]
[OGL LOG][Proc: 0]p: solve: 817.387 [ms]
[OGL LOG][Proc: 0]p: copy_x_back: 1.447 [ms]
[OGL LOG][lduLduBase.H:330] 
Statistics:
	Time per iteration: 971 [mu s]
	Time per residual norm calculation: 297.000000 [mu s]
	Time per iteration and DOF: 0.121375 [ns]
	Retrieve results bandwidth 2.764000 [GByte/s]
[OGL LOG][Proc: 0]p: solve_multi_gpu: 934.945 [ms]
GISAIhipGKOCG:  Solving for p, Initial residual = 0.281668, Final residual = 8.41696e-05, No Iterations 841
[INFO] SolveP: 952.501 [ms]
time step continuity errors : sum local = 3.84479e-09, global = -3.18867e-21, cumulative = -4.88474e-20
[INFO] ContinuityError: 8.001 [ms]
[INFO] CorrectBoundary: 0.245 [ms]
[INFO] PISOStep: 1078.17 [ms]
[INFO] MatrixAssemblyPI: 65.505 [ms]
[INFO] AdjustPhi: 4.792 [ms]
[INFO] ConstrainPressure: 0.004 [ms]
[INFO] MatrixAssemblyPII: 19.924 [ms]
[OGL LOG][Proc: 0]: global_index_init: 0.216 [ms]
[OGL LOG][Proc: 0]p_local_coeffs: call_update: 0 [ms]
[OGL LOG][Proc: 0]p_non_local_coeffs: call_update: 0 [ms]
[OGL LOG][Proc: 0]p: update_local_matrix_data: 14.204 [ms]
[OGL LOG][Proc: 0]p: update_non_local_matrix_data: 0.088 [ms]
[OGL LOG][Proc: 0]p: regenerate_distributed_matrix: 42.067 [ms]
[OGL LOG][Proc: 0]p_matrix: call_update: 42.849 [ms]
[OGL LOG][Proc: 0]p_rhs: call_update: 6.371 [ms]
[OGL LOG][Preconditioner.H:271] Generate preconditioner GISAI SparsityPower 1
[OGL LOG][Proc: 0]p: init_precond: 68.187 [ms]
[OGL LOG][StoppingCriterion.H:239] Creating stopping criterion with minIter 504 frequency 10
[OGL LOG][Proc: 0]p: generate_solver: 0.002 [ms]
[OGL LOG][Proc: 0]p: solve: 797.481 [ms]
[OGL LOG][Proc: 0]p: copy_x_back: 1.423 [ms]
[OGL LOG][lduLduBase.H:330] 
Statistics:
	Time per iteration: 948 [mu s]
	Time per residual norm calculation: 296.000000 [mu s]
	Time per iteration and DOF: 0.118500 [ns]
	Retrieve results bandwidth 2.810000 [GByte/s]
[OGL LOG][Proc: 0]p: solve_multi_gpu: 919.293 [ms]
GISAIhipGKOCG:  Solving for p, Initial residual = 0.248657, Final residual = 7.92159e-05, No Iterations 841
[INFO] SolveP: 936.299 [ms]
time step continuity errors : sum local = 3.60715e-09, global = -5.62644e-21, cumulative = -5.44738e-20
[INFO] ContinuityError: 6.997 [ms]
[INFO] CorrectBoundary: 0.231 [ms]
[INFO] PISOStep: 1059.8 [ms]
[INFO] TimeStep: 2732.32 [ms]
ExecutionTime = 50.4 s  ClockTime = 45 s

Time = 0.00425

Courant Number mean: 0.0570984 max: 0.485442
[INFO] MatrixAssemblyU: 61.549 [ms]
DILUPBiCGStab:  Solving for Ux, Initial residual = 0.00551925, Final residual = 8.99362e-05, No Iterations 5
DILUPBiCGStab:  Solving for Uy, Initial residual = 0.0132664, Final residual = 0.000192716, No Iterations 5
DILUPBiCGStab:  Solving for Uz, Initial residual = 0.0459153, Final residual = 0.00212336, No Iterations 5
[INFO] MomentumPredictor: 509.961 [ms]
[INFO] MatrixAssemblyPI: 67.649 [ms]
[INFO] AdjustPhi: 4.155 [ms]
[INFO] ConstrainPressure: 0.004 [ms]
[INFO] MatrixAssemblyPII: 19.797 [ms]
[OGL LOG][Proc: 0]: global_index_init: 0.587 [ms]
[OGL LOG][Proc: 0]p_local_coeffs: call_update: 0 [ms]
[OGL LOG][Proc: 0]p_non_local_coeffs: call_update: 0 [ms]
[OGL LOG][Proc: 0]p: update_local_matrix_data: 15.51 [ms]
[OGL LOG][Proc: 0]p: update_non_local_matrix_data: 0.078 [ms]
[OGL LOG][Proc: 0]p: regenerate_distributed_matrix: 47.634 [ms]
[OGL LOG][Proc: 0]p_matrix: call_update: 48.58 [ms]
[OGL LOG][Proc: 0]p_rhs: call_update: 4.845 [ms]
[OGL LOG][Preconditioner.H:271] Generate preconditioner GISAI SparsityPower 1
[OGL LOG][Proc: 0]p: init_precond: 69.112 [ms]
[OGL LOG][StoppingCriterion.H:239] Creating stopping criterion with minIter 504 frequency 10
[OGL LOG][Proc: 0]p: generate_solver: 0.002 [ms]
[OGL LOG][Proc: 0]p: solve: 819.232 [ms]
[OGL LOG][Proc: 0]p: copy_x_back: 1.469 [ms]
[OGL LOG][lduLduBase.H:330] 
Statistics:
	Time per iteration: 974 [mu s]
	Time per residual norm calculation: 296.000000 [mu s]
	Time per iteration and DOF: 0.121750 [ns]
	Retrieve results bandwidth 2.722000 [GByte/s]
[OGL LOG][Proc: 0]p: solve_multi_gpu: 945.011 [ms]
GISAIhipGKOCG:  Solving for p, Initial residual = 0.251619, Final residual = 7.44562e-05, No Iterations 841
[INFO] SolveP: 963.839 [ms]
time step continuity errors : sum local = 3.32569e-09, global = -4.69294e-21, cumulative = -5.91668e-20
[INFO] ContinuityError: 8.184 [ms]
[INFO] CorrectBoundary: 0.257 [ms]
[INFO] PISOStep: 1089.15 [ms]
[INFO] MatrixAssemblyPI: 65.425 [ms]
[INFO] AdjustPhi: 4.484 [ms]
[INFO] ConstrainPressure: 0.004 [ms]
[INFO] MatrixAssemblyPII: 20.031 [ms]
[OGL LOG][Proc: 0]: global_index_init: 0.195 [ms]
[OGL LOG][Proc: 0]p_local_coeffs: call_update: 0 [ms]
[OGL LOG][Proc: 0]p_non_local_coeffs: call_update: 0 [ms]
[OGL LOG][Proc: 0]p: update_local_matrix_data: 14.829 [ms]
[OGL LOG][Proc: 0]p: update_non_local_matrix_data: 0.072 [ms]
[OGL LOG][Proc: 0]p: regenerate_distributed_matrix: 47.305 [ms]
[OGL LOG][Proc: 0]p_matrix: call_update: 48.158 [ms]
[OGL LOG][Proc: 0]p_rhs: call_update: 5.597 [ms]
[OGL LOG][Preconditioner.H:271] Generate preconditioner GISAI SparsityPower 1
[OGL LOG][Proc: 0]p: init_precond: 68.252 [ms]
[OGL LOG][StoppingCriterion.H:239] Creating stopping criterion with minIter 504 frequency 10
[OGL LOG][Proc: 0]p: generate_solver: 0.002 [ms]
[OGL LOG][Proc: 0]p: solve: 815.934 [ms]
[OGL LOG][Proc: 0]p: copy_x_back: 2.072 [ms]
[OGL LOG][lduLduBase.H:330] 
Statistics:
	Time per iteration: 970 [mu s]
	Time per residual norm calculation: 297.000000 [mu s]
	Time per iteration and DOF: 0.121250 [ns]
	Retrieve results bandwidth 1.930000 [GByte/s]
[OGL LOG][Proc: 0]p: solve_multi_gpu: 943.02 [ms]
GISAIhipGKOCG:  Solving for p, Initial residual = 0.220587, Final residual = 8.49661e-05, No Iterations 841
[INFO] SolveP: 960.541 [ms]
time step continuity errors : sum local = 3.79816e-09, global = -5.10186e-21, cumulative = -6.42686e-20
[INFO] ContinuityError: 10.93 [ms]
[INFO] CorrectBoundary: 0.265 [ms]
[INFO] PISOStep: 1087.36 [ms]
[INFO] TimeStep: 2756.34 [ms]
ExecutionTime = 53.54 s  ClockTime = 47 s

Time = 0.0045

Courant Number mean: 0.0582668 max: 0.485813
[INFO] MatrixAssemblyU: 60.784 [ms]
DILUPBiCGStab:  Solving for Ux, Initial residual = 0.00512778, Final residual = 8.03234e-05, No Iterations 5
DILUPBiCGStab:  Solving for Uy, Initial residual = 0.0122942, Final residual = 0.000166555, No Iterations 5
DILUPBiCGStab:  Solving for Uz, Initial residual = 0.0411205, Final residual = 0.00186312, No Iterations 5
[INFO] MomentumPredictor: 512.686 [ms]
[INFO] MatrixAssemblyPI: 67.326 [ms]
[INFO] AdjustPhi: 5.101 [ms]
[INFO] ConstrainPressure: 0.006 [ms]
[INFO] MatrixAssemblyPII: 19.874 [ms]
[OGL LOG][Proc: 0]: global_index_init: 0.461 [ms]
[OGL LOG][Proc: 0]p_local_coeffs: call_update: 0 [ms]
[OGL LOG][Proc: 0]p_non_local_coeffs: call_update: 0 [ms]
[OGL LOG][Proc: 0]p: update_local_matrix_data: 15.099 [ms]
[OGL LOG][Proc: 0]p: update_non_local_matrix_data: 0.15 [ms]
[OGL LOG][Proc: 0]p: regenerate_distributed_matrix: 40.744 [ms]
[OGL LOG][Proc: 0]p_matrix: call_update: 41.679 [ms]
[OGL LOG][Proc: 0]p_rhs: call_update: 5.661 [ms]
[OGL LOG][Preconditioner.H:271] Generate preconditioner GISAI SparsityPower 1
[OGL LOG][Proc: 0]p: init_precond: 68.217 [ms]
[OGL LOG][StoppingCriterion.H:239] Creating stopping criterion with minIter 504 frequency 10
[OGL LOG][Proc: 0]p: generate_solver: 0.002 [ms]
[OGL LOG][Proc: 0]p: solve: 811.861 [ms]
[OGL LOG][Proc: 0]p: copy_x_back: 1.44 [ms]
[OGL LOG][lduLduBase.H:330] 
Statistics:
	Time per iteration: 965 [mu s]
	Time per residual norm calculation: 298.000000 [mu s]
	Time per iteration and DOF: 0.120625 [ns]
	Retrieve results bandwidth 2.777000 [GByte/s]
[OGL LOG][Proc: 0]p: solve_multi_gpu: 931.281 [ms]
GISAIhipGKOCG:  Solving for p, Initial residual = 0.228418, Final residual = 6.96286e-05, No Iterations 841
[INFO] SolveP: 949.985 [ms]
time step continuity errors : sum local = 2.9971e-09, global = -3.64611e-21, cumulative = -6.79147e-20
[INFO] ContinuityError: 7.53 [ms]
[INFO] CorrectBoundary: 0.243 [ms]
[INFO] PISOStep: 1078.46 [ms]
[INFO] MatrixAssemblyPI: 65.7 [ms]
[INFO] AdjustPhi: 4.699 [ms]
[INFO] ConstrainPressure: 0.004 [ms]
[INFO] MatrixAssemblyPII: 20.026 [ms]
[OGL LOG][Proc: 0]: global_index_init: 0.236 [ms]
[OGL LOG][Proc: 0]p_local_coeffs: call_update: 0 [ms]
[OGL LOG][Proc: 0]p_non_local_coeffs: call_update: 0 [ms]
[OGL LOG][Proc: 0]p: update_local_matrix_data: 15.169 [ms]
[OGL LOG][Proc: 0]p: update_non_local_matrix_data: 0.101 [ms]
[OGL LOG][Proc: 0]p: regenerate_distributed_matrix: 40.73 [ms]
[OGL LOG][Proc: 0]p_matrix: call_update: 41.6 [ms]
[OGL LOG][Proc: 0]p_rhs: call_update: 4.851 [ms]
[OGL LOG][Preconditioner.H:271] Generate preconditioner GISAI SparsityPower 1
[OGL LOG][Proc: 0]p: init_precond: 68.837 [ms]
[OGL LOG][StoppingCriterion.H:239] Creating stopping criterion with minIter 504 frequency 10
[OGL LOG][Proc: 0]p: generate_solver: 0.002 [ms]
[OGL LOG][Proc: 0]p: solve: 804.693 [ms]
[OGL LOG][Proc: 0]p: copy_x_back: 1.459 [ms]
[OGL LOG][lduLduBase.H:330] 
Statistics:
	Time per iteration: 956 [mu s]
	Time per residual norm calculation: 300.000000 [mu s]
	Time per iteration and DOF: 0.119500 [ns]
	Retrieve results bandwidth 2.741000 [GByte/s]
[OGL LOG][Proc: 0]p: solve_multi_gpu: 923.901 [ms]
GISAIhipGKOCG:  Solving for p, Initial residual = 0.201065, Final residual = 6.53185e-05, No Iterations 841
[INFO] SolveP: 941.789 [ms]
time step continuity errors : sum local = 2.80484e-09, global = -4.65722e-21, cumulative = -7.25719e-20
[INFO] ContinuityError: 7.811 [ms]
[INFO] CorrectBoundary: 0.285 [ms]
[INFO] PISOStep: 1065.45 [ms]
[INFO] TimeStep: 2727.08 [ms]
ExecutionTime = 56.64 s  ClockTime = 50 s

Time = 0.00475

Courant Number mean: 0.0593738 max: 0.486111
[INFO] MatrixAssemblyU: 60.166 [ms]
DILUPBiCGStab:  Solving for Ux, Initial residual = 0.00477541, Final residual = 7.12066e-05, No Iterations 5
DILUPBiCGStab:  Solving for Uy, Initial residual = 0.0113308, Final residual = 0.000153768, No Iterations 5
DILUPBiCGStab:  Solving for Uz, Initial residual = 0.0363486, Final residual = 0.0016363, No Iterations 5
[INFO] MomentumPredictor: 525.288 [ms]
[INFO] MatrixAssemblyPI: 66.945 [ms]
[INFO] AdjustPhi: 6.026 [ms]
[INFO] ConstrainPressure: 0.005 [ms]
[INFO] MatrixAssemblyPII: 20.006 [ms]
[OGL LOG][Proc: 0]: global_index_init: 0.529 [ms]
[OGL LOG][Proc: 0]p_local_coeffs: call_update: 0 [ms]
[OGL LOG][Proc: 0]p_non_local_coeffs: call_update: 0 [ms]
[OGL LOG][Proc: 0]p: update_local_matrix_data: 14.4 [ms]
[OGL LOG][Proc: 0]p: update_non_local_matrix_data: 0.092 [ms]
[OGL LOG][Proc: 0]p: regenerate_distributed_matrix: 46.414 [ms]
[OGL LOG][Proc: 0]p_matrix: call_update: 47.375 [ms]
[OGL LOG][Proc: 0]p_rhs: call_update: 3.964 [ms]
[OGL LOG][Preconditioner.H:271] Generate preconditioner GISAI SparsityPower 1
[OGL LOG][Proc: 0]p: init_precond: 68.348 [ms]
[OGL LOG][StoppingCriterion.H:239] Creating stopping criterion with minIter 504 frequency 10
[OGL LOG][Proc: 0]p: generate_solver: 0.002 [ms]
[OGL LOG][Proc: 0]p: solve: 782.479 [ms]
[OGL LOG][Proc: 0]p: copy_x_back: 1.43 [ms]
[OGL LOG][lduLduBase.H:330] 
Statistics:
	Time per iteration: 953 [mu s]
	Time per residual norm calculation: 301.000000 [mu s]
	Time per iteration and DOF: 0.119125 [ns]
	Retrieve results bandwidth 2.797000 [GByte/s]
[OGL LOG][Proc: 0]p: solve_multi_gpu: 907.366 [ms]
GISAIhipGKOCG:  Solving for p, Initial residual = 0.202244, Final residual = 9.93458e-05, No Iterations 821
[INFO] SolveP: 926.005 [ms]
time step continuity errors : sum local = 4.23201e-09, global = -5.51028e-21, cumulative = -7.80822e-20
[INFO] ContinuityError: 8.092 [ms]
[INFO] CorrectBoundary: 0.334 [ms]
[INFO] PISOStep: 1052.35 [ms]
[INFO] MatrixAssemblyPI: 65.638 [ms]
[INFO] AdjustPhi: 4.5 [ms]
[INFO] ConstrainPressure: 0.004 [ms]
[INFO] MatrixAssemblyPII: 19.986 [ms]
[OGL LOG][Proc: 0]: global_index_init: 0.372 [ms]
[OGL LOG][Proc: 0]p_local_coeffs: call_update: 0 [ms]
[OGL LOG][Proc: 0]p_non_local_coeffs: call_update: 0 [ms]
[OGL LOG][Proc: 0]p: update_local_matrix_data: 15.46 [ms]
[OGL LOG][Proc: 0]p: update_non_local_matrix_data: 0.08 [ms]
[OGL LOG][Proc: 0]p: regenerate_distributed_matrix: 40.865 [ms]
[OGL LOG][Proc: 0]p_matrix: call_update: 41.79 [ms]
[OGL LOG][Proc: 0]p_rhs: call_update: 5.553 [ms]
[OGL LOG][Preconditioner.H:271] Generate preconditioner GISAI SparsityPower 1
[OGL LOG][Proc: 0]p: init_precond: 68.27 [ms]
[OGL LOG][StoppingCriterion.H:239] Creating stopping criterion with minIter 492 frequency 10
[OGL LOG][Proc: 0]p: generate_solver: 0.002 [ms]
[OGL LOG][Proc: 0]p: solve: 810.476 [ms]
[OGL LOG][Proc: 0]p: copy_x_back: 1.433 [ms]
[OGL LOG][lduLduBase.H:330] 
Statistics:
	Time per iteration: 975 [mu s]
	Time per residual norm calculation: 297.000000 [mu s]
	Time per iteration and DOF: 0.121875 [ns]
	Retrieve results bandwidth 2.791000 [GByte/s]
[OGL LOG][Proc: 0]p: solve_multi_gpu: 929.462 [ms]
GISAIhipGKOCG:  Solving for p, Initial residual = 0.176963, Final residual = 8.89596e-05, No Iterations 831
[INFO] SolveP: 948.031 [ms]
time step continuity errors : sum local = 3.79105e-09, global = -2.7547e-21, cumulative = -8.08369e-20
[INFO] ContinuityError: 7.692 [ms]
[INFO] CorrectBoundary: 0.233 [ms]
[INFO] PISOStep: 1071.35 [ms]
[INFO] TimeStep: 2717.03 [ms]
ExecutionTime = 59.72 s  ClockTime = 53 s

Time = 0.005

Courant Number mean: 0.0604236 max: 0.486416
[INFO] MatrixAssemblyU: 60.02 [ms]
DILUPBiCGStab:  Solving for Ux, Initial residual = 0.00447304, Final residual = 6.44475e-05, No Iterations 5
DILUPBiCGStab:  Solving for Uy, Initial residual = 0.0105891, Final residual = 0.000135637, No Iterations 5
DILUPBiCGStab:  Solving for Uz, Initial residual = 0.0330685, Final residual = 0.00142731, No Iterations 5
[INFO] MomentumPredictor: 511.295 [ms]
[INFO] MatrixAssemblyPI: 67.477 [ms]
[INFO] AdjustPhi: 4.29 [ms]
[INFO] ConstrainPressure: 0.004 [ms]
[INFO] MatrixAssemblyPII: 20.071 [ms]
[OGL LOG][Proc: 0]: global_index_init: 0.211 [ms]
[OGL LOG][Proc: 0]p_local_coeffs: call_update: 0 [ms]
[OGL LOG][Proc: 0]p_non_local_coeffs: call_update: 0 [ms]
[OGL LOG][Proc: 0]p: update_local_matrix_data: 15.129 [ms]
[OGL LOG][Proc: 0]p: update_non_local_matrix_data: 0.078 [ms]
[OGL LOG][Proc: 0]p: regenerate_distributed_matrix: 50.802 [ms]
[OGL LOG][Proc: 0]p_matrix: call_update: 51.728 [ms]
[OGL LOG][Proc: 0]p_rhs: call_update: 5.785 [ms]
[OGL LOG][Preconditioner.H:271] Generate preconditioner GISAI SparsityPower 1
[OGL LOG][Proc: 0]p: init_precond: 69.242 [ms]
[OGL LOG][StoppingCriterion.H:239] Creating stopping criterion with minIter 498 frequency 10
[OGL LOG][Proc: 0]p: generate_solver: 0.002 [ms]
[OGL LOG][Proc: 0]p: solve: 804.611 [ms]
[OGL LOG][Proc: 0]p: copy_x_back: 1.767 [ms]
[OGL LOG][lduLduBase.H:330] 
Statistics:
	Time per iteration: 956 [mu s]
	Time per residual norm calculation: 296.000000 [mu s]
	Time per iteration and DOF: 0.119500 [ns]
	Retrieve results bandwidth 2.263000 [GByte/s]
[OGL LOG][Proc: 0]p: solve_multi_gpu: 937.736 [ms]
GISAIhipGKOCG:  Solving for p, Initial residual = 0.183605, Final residual = 5.59511e-05, No Iterations 841
[INFO] SolveP: 955.543 [ms]
time step continuity errors : sum local = 2.3021e-09, global = -3.70042e-21, cumulative = -8.45373e-20
[INFO] ContinuityError: 7.725 [ms]
[INFO] CorrectBoundary: 0.262 [ms]
[INFO] PISOStep: 1080.15 [ms]
[INFO] MatrixAssemblyPI: 65.143 [ms]
[INFO] AdjustPhi: 5.043 [ms]
[INFO] ConstrainPressure: 0.004 [ms]
[INFO] MatrixAssemblyPII: 19.935 [ms]
[OGL LOG][Proc: 0]: global_index_init: 0.469 [ms]
[OGL LOG][Proc: 0]p_local_coeffs: call_update: 0 [ms]
[OGL LOG][Proc: 0]p_non_local_coeffs: call_update: 0 [ms]
[OGL LOG][Proc: 0]p: update_local_matrix_data: 15.586 [ms]
[OGL LOG][Proc: 0]p: update_non_local_matrix_data: 0.081 [ms]
[OGL LOG][Proc: 0]p: regenerate_distributed_matrix: 41.806 [ms]
[OGL LOG][Proc: 0]p_matrix: call_update: 42.714 [ms]
[OGL LOG][Proc: 0]p_rhs: call_update: 4.619 [ms]
[OGL LOG][Preconditioner.H:271] Generate preconditioner GISAI SparsityPower 1
[OGL LOG][Proc: 0]p: init_precond: 67.783 [ms]
[OGL LOG][StoppingCriterion.H:239] Creating stopping criterion with minIter 504 frequency 10
[OGL LOG][Proc: 0]p: generate_solver: 0.003 [ms]
[OGL LOG][Proc: 0]p: solve: 804.351 [ms]
[OGL LOG][Proc: 0]p: copy_x_back: 1.806 [ms]
[OGL LOG][lduLduBase.H:330] 
Statistics:
	Time per iteration: 967 [mu s]
	Time per residual norm calculation: 297.000000 [mu s]
	Time per iteration and DOF: 0.120875 [ns]
	Retrieve results bandwidth 2.214000 [GByte/s]
[OGL LOG][Proc: 0]p: solve_multi_gpu: 923.075 [ms]
GISAIhipGKOCG:  Solving for p, Initial residual = 0.161218, Final residual = 9.25552e-05, No Iterations 831
[INFO] SolveP: 942.161 [ms]
time step continuity errors : sum local = 3.80171e-09, global = -4.98639e-21, cumulative = -8.95237e-20
[INFO] ContinuityError: 7.177 [ms]
[INFO] CorrectBoundary: 0.24 [ms]
[INFO] PISOStep: 1065.59 [ms]
[INFO] TimeStep: 2725.37 [ms]
ExecutionTime = 62.82 s  ClockTime = 55 s

End

Finalising parallel run
