/*---------------------------------------------------------------------------*\
| =========                 |                                                 |
| \\      /  F ield         | OpenFOAM: The Open Source CFD Toolbox           |
|  \\    /   O peration     | Version:  2312                                  |
|   \\  /    A nd           | Website:  www.openfoam.com                      |
|    \\/     M anipulation  |                                                 |
\*---------------------------------------------------------------------------*/
Build  : a46b310f-20240104 OPENFOAM=2312 version=v2312
Arch   : "LSB;label=32;scalar=64"
Exec   : icoFoam -parallel -case /hppfs/scratch/0B/di35yan/lidDriven3D/workspace/0412850b66f275d1356482a6b1b4760d/case
Date   : Feb 18 2024
Time   : 22:49:47
Host   : i20r05c03s04
PID    : 86544
I/O    : uncollated
Case   : /hppfs/scratch/0B/di35yan/lidDriven3D/workspace/0412850b66f275d1356482a6b1b4760d/case
nProcs : 80
Hosts  :
(
    (i20r05c03s04 8)
    (i20r05c03s06 8)
    (i20r05c03s08 8)
    (i20r05c04s02 8)
    (i20r05c04s06 8)
    (i20r05c04s08 8)
    (i20r05c04s10 8)
    (i20r05c05s02 8)
    (i20r05c05s04 8)
    (i20r05c05s06 8)
)
Pstream initialized with:
    floatTransfer      : false
    nProcsSimpleSum    : 0
    nonBlockingExchange: 0 (tuning: 0)
    exchange algorithm : 0
    commsType          : nonBlocking
    polling iterations : 0
trapFpe: Floating point exception trapping enabled (FOAM_SIGFPE).
fileModificationChecking : Monitoring run-time modified files using timeStampMaster (fileModificationSkew 5, maxFileModificationPolls 20)
allowSystemOperations : Allowing user-supplied system call operations

// * * * * * * * * * * * * * * * * * * * * * * * * * * * * * * * * * * * * * //
Create time

--> FOAM Warning : 
    From void* Foam::dlLibraryTable::openLibrary(const Foam::fileName&, bool)
    in file db/dynamicLibrary/dlLibraryTable/dlLibraryTable.C at line 188
    Could not load "libpetscFoam.so"
libpetscFoam.so: cannot open shared object file: No such file or directory
Create mesh for time = 0


PISO: Operating solver in PISO mode

Reading transportProperties

Reading field p

Reading field U

Reading/calculating face flux field phi


Starting time loop

Time = 0.000166

Courant Number mean: 8.14055e-18 max: 3.11001e-14
[INFO] MatrixAssemblyU: 42.902 [ms]
DILUPBiCGStab:  Solving for Ux, Initial residual = 1, Final residual = 0.0163135, No Iterations 5
DILUPBiCGStab:  Solving for Uy:  solution singularity
DILUPBiCGStab:  Solving for Uz:  solution singularity
[INFO] MomentumPredictor: 171.724 [ms]
[INFO] MatrixAssemblyPI: 34.477 [ms]
[INFO] AdjustPhi: 4.025 [ms]
[INFO] ConstrainPressure: 0.004 [ms]
[INFO] MatrixAssemblyPII: 10.394 [ms]
[OGL LOG][lduLduBase.H:119] Initialising OGL
	OGL commit:  34fc915+
	Branch: fix/cyclic_interfaces 
	Build type: Debug
	Ginkgo version: 1.8.0 ( develop)
	Ginkgo commit: fc86d48b78cebd2b2c5833a2dcf0fe40f615cf19
	MPI is GPU aware: 1
	Forces host buffer based communication: 0
	CPU ranks per GPU: 1
	Matrix format: Ell
	End OGL_INFO
[OGL LOG][Proc: 0]: global_index_init: 0.338 [ms]
[OGL LOG][Proc: 0]p_local_cols: call_init: 0.133 [ms]
[OGL LOG][Proc: 0]p_local_rows: call_init: 0.014 [ms]
[OGL LOG][Proc: 0]p_local_ldu_map: call_init: 0.014 [ms]
[OGL LOG][Proc: 0]p_local_coeffs: call_init: 0.805 [ms]
[OGL LOG][Proc: 0]p_non_local_cols: call_init: 0.047 [ms]
[OGL LOG][Proc: 0]p_non_local_rows: call_init: 0.008 [ms]
[OGL LOG][Proc: 0]p_non_local_ldu_map: call_init: 0.012 [ms]
[OGL LOG][Proc: 0]p_non_local_coeffs: call_init: 0.035 [ms]
[OGL LOG][Proc: 0]p: init_local_sparsity_pattern: 4261.73 [ms]
[OGL LOG][Proc: 0]p: init_non_local_sparsity_pattern: 27.001 [ms]
[OGL LOG][Proc: 0]p: update_local_matrix_data: 3884.8 [ms]
[OGL LOG][Proc: 0]p: update_non_local_matrix_data: 0.888 [ms]
[OGL LOG][Proc: 0]device_partition: call_init: 4.137 [ms]
[OGL LOG][Proc: 0]p_matrix: call_init: 148.724 [ms]
[OGL LOG][Proc: 0]p_rhs: call_init: 3.334 [ms]
[OGL LOG][Proc: 0]p_solution: call_init: 1.221 [ms]
[OGL LOG][Proc: 0]p: init_precond: 0.182 [ms]
[OGL LOG][StoppingCriterion.H:239] Creating stopping criterion with minIter 0 frequency 1
[OGL LOG][Proc: 0]p: generate_solver: 5.781 [ms]
[OGL LOG][Proc: 0]p: solve: 2573.13 [ms]
[OGL LOG][Proc: 0]p: copy_x_back: 0.584 [ms]
[OGL LOG][lduLduBase.H:330] 
Statistics:
	Time per iteration: 1058 [mu s]
	Time per residual norm calculation: 47076.000000 [mu s]
	Time per iteration and DOF: 0.039185 [ns]
	Retrieve results bandwidth 4.623000 [GByte/s]
[OGL LOG][Proc: 0]p: solve_multi_gpu: 3059.56 [ms]
nonedpcppGKOCG:  Solving for p, Initial residual = 1, Final residual = 9.97934e-05, No Iterations 2430
[INFO] SolveP: 11246.8 [ms]
time step continuity errors : sum local = 4.03247e-09, global = -2.95188e-21, cumulative = -2.95188e-21
[INFO] ContinuityError: 7.522 [ms]
[INFO] CorrectBoundary: 0.772 [ms]
[INFO] PISOStep: 11321 [ms]
[INFO] MatrixAssemblyPI: 37.563 [ms]
[INFO] AdjustPhi: 2.826 [ms]
[INFO] ConstrainPressure: 0.001 [ms]
[INFO] MatrixAssemblyPII: 10.61 [ms]
[OGL LOG][Proc: 0]: global_index_init: 0.136 [ms]
[OGL LOG][Proc: 0]p_local_coeffs: call_update: 0.001 [ms]
[OGL LOG][Proc: 0]p_non_local_coeffs: call_update: 0 [ms]
[OGL LOG][Proc: 0]p: update_local_matrix_data: 4.737 [ms]
[OGL LOG][Proc: 0]p: update_non_local_matrix_data: 0.255 [ms]
[OGL LOG][Proc: 0]p: regenerate_distributed_matrix: 27.054 [ms]
[OGL LOG][Proc: 0]p_matrix: call_update: 82.86 [ms]
[OGL LOG][Proc: 0]p_rhs: call_update: 3.302 [ms]
[OGL LOG][Proc: 0]p: init_precond: 0.061 [ms]
[OGL LOG][StoppingCriterion.H:239] Creating stopping criterion with minIter 0 frequency 1
[OGL LOG][Proc: 0]p: generate_solver: 0.017 [ms]
[OGL LOG][Proc: 0]p: solve: 1867.64 [ms]
[OGL LOG][Proc: 0]p: copy_x_back: 0.594 [ms]
[OGL LOG][lduLduBase.H:330] 
Statistics:
	Time per iteration: 772 [mu s]
	Time per residual norm calculation: 136.000000 [mu s]
	Time per iteration and DOF: 0.028593 [ns]
	Retrieve results bandwidth 4.545000 [GByte/s]
[OGL LOG][Proc: 0]p: solve_multi_gpu: 1956.33 [ms]
nonedpcppGKOCG:  Solving for p, Initial residual = 0.80945, Final residual = 9.98418e-05, No Iterations 2417
[INFO] SolveP: 1962.94 [ms]
time step continuity errors : sum local = 4.92457e-09, global = 2.95133e-22, cumulative = -2.65674e-21
[INFO] ContinuityError: 4.818 [ms]
[INFO] CorrectBoundary: 0.146 [ms]
[INFO] PISOStep: 2033.07 [ms]
[INFO] TimeStep: 13575.3 [ms]
ExecutionTime = 11.8 s  ClockTime = 16 s

Time = 0.000332

Courant Number mean: 0.0128238 max: 0.426584
[INFO] MatrixAssemblyU: 29.301 [ms]
DILUPBiCGStab:  Solving for Ux, Initial residual = 0.116949, Final residual = 0.0103986, No Iterations 5
DILUPBiCGStab:  Solving for Uy, Initial residual = 0.460127, Final residual = 0.0352839, No Iterations 5
DILUPBiCGStab:  Solving for Uz, Initial residual = 0.988821, Final residual = 0.082675, No Iterations 5
[INFO] MomentumPredictor: 300.074 [ms]
[INFO] MatrixAssemblyPI: 32.638 [ms]
[INFO] AdjustPhi: 4.343 [ms]
[INFO] ConstrainPressure: 0.002 [ms]
[INFO] MatrixAssemblyPII: 9.94 [ms]
[OGL LOG][Proc: 0]: global_index_init: 0.109 [ms]
[OGL LOG][Proc: 0]p_local_coeffs: call_update: 0 [ms]
[OGL LOG][Proc: 0]p_non_local_coeffs: call_update: 0 [ms]
[OGL LOG][Proc: 0]p: update_local_matrix_data: 4.528 [ms]
[OGL LOG][Proc: 0]p: update_non_local_matrix_data: 0.258 [ms]
[OGL LOG][Proc: 0]p: regenerate_distributed_matrix: 27.355 [ms]
[OGL LOG][Proc: 0]p_matrix: call_update: 27.68 [ms]
[OGL LOG][Proc: 0]p_rhs: call_update: 0.636 [ms]
[OGL LOG][Proc: 0]p: init_precond: 0.041 [ms]
[OGL LOG][StoppingCriterion.H:239] Creating stopping criterion with minIter 1450 frequency 13
[OGL LOG][Proc: 0]p: generate_solver: 0.015 [ms]
[OGL LOG][Proc: 0]p: solve: 1596.82 [ms]
[OGL LOG][Proc: 0]p: copy_x_back: 0.575 [ms]
[OGL LOG][lduLduBase.H:330] 
Statistics:
	Time per iteration: 670 [mu s]
	Time per residual norm calculation: 168.000000 [mu s]
	Time per iteration and DOF: 0.024815 [ns]
	Retrieve results bandwidth 4.695000 [GByte/s]
[OGL LOG][Proc: 0]p: solve_multi_gpu: 1627.68 [ms]
nonedpcppGKOCG:  Solving for p, Initial residual = 0.887074, Final residual = 9.50783e-05, No Iterations 2380
[INFO] SolveP: 1634.04 [ms]
time step continuity errors : sum local = 9.73636e-09, global = 6.27447e-22, cumulative = -2.0293e-21
[INFO] ContinuityError: 6.746 [ms]
[INFO] CorrectBoundary: 0.994 [ms]
[INFO] PISOStep: 1702.35 [ms]
[INFO] MatrixAssemblyPI: 32.039 [ms]
[INFO] AdjustPhi: 6.095 [ms]
[INFO] ConstrainPressure: 0.001 [ms]
[INFO] MatrixAssemblyPII: 10.028 [ms]
[OGL LOG][Proc: 0]: global_index_init: 0.096 [ms]
[OGL LOG][Proc: 0]p_local_coeffs: call_update: 0 [ms]
[OGL LOG][Proc: 0]p_non_local_coeffs: call_update: 0 [ms]
[OGL LOG][Proc: 0]p: update_local_matrix_data: 4.252 [ms]
[OGL LOG][Proc: 0]p: update_non_local_matrix_data: 0.239 [ms]
[OGL LOG][Proc: 0]p: regenerate_distributed_matrix: 29.139 [ms]
[OGL LOG][Proc: 0]p_matrix: call_update: 29.518 [ms]
[OGL LOG][Proc: 0]p_rhs: call_update: 0.481 [ms]
[OGL LOG][Proc: 0]p: init_precond: 0.045 [ms]
[OGL LOG][StoppingCriterion.H:239] Creating stopping criterion with minIter 1428 frequency 17
[OGL LOG][Proc: 0]p: generate_solver: 0.019 [ms]
[OGL LOG][Proc: 0]p: solve: 1593.37 [ms]
[OGL LOG][Proc: 0]p: copy_x_back: 0.567 [ms]
[OGL LOG][lduLduBase.H:330] 
Statistics:
	Time per iteration: 669 [mu s]
	Time per residual norm calculation: 146.000000 [mu s]
	Time per iteration and DOF: 0.024778 [ns]
	Retrieve results bandwidth 4.761000 [GByte/s]
[OGL LOG][Proc: 0]p: solve_multi_gpu: 1626.12 [ms]
nonedpcppGKOCG:  Solving for p, Initial residual = 0.833885, Final residual = 8.14856e-05, No Iterations 2381
[INFO] SolveP: 1632.48 [ms]
time step continuity errors : sum local = 8.51128e-09, global = 3.96214e-22, cumulative = -1.63308e-21
[INFO] ContinuityError: 7.111 [ms]
[INFO] CorrectBoundary: 0.916 [ms]
[INFO] PISOStep: 1702.12 [ms]
[INFO] TimeStep: 3738.9 [ms]
ExecutionTime = 15.54 s  ClockTime = 20 s

Time = 0.000498

Courant Number mean: 0.0197768 max: 0.492271
[INFO] MatrixAssemblyU: 27.847 [ms]
DILUPBiCGStab:  Solving for Ux, Initial residual = 0.0544295, Final residual = 0.00389078, No Iterations 5
DILUPBiCGStab:  Solving for Uy, Initial residual = 0.226655, Final residual = 0.0180283, No Iterations 5
DILUPBiCGStab:  Solving for Uz, Initial residual = 0.847393, Final residual = 0.0591459, No Iterations 5
[INFO] MomentumPredictor: 311.141 [ms]
[INFO] MatrixAssemblyPI: 34.397 [ms]
[INFO] AdjustPhi: 4.946 [ms]
[INFO] ConstrainPressure: 0.001 [ms]
[INFO] MatrixAssemblyPII: 10.718 [ms]
[OGL LOG][Proc: 0]: global_index_init: 0.083 [ms]
[OGL LOG][Proc: 0]p_local_coeffs: call_update: 0 [ms]
[OGL LOG][Proc: 0]p_non_local_coeffs: call_update: 0 [ms]
[OGL LOG][Proc: 0]p: update_local_matrix_data: 4.347 [ms]
[OGL LOG][Proc: 0]p: update_non_local_matrix_data: 0.289 [ms]
[OGL LOG][Proc: 0]p: regenerate_distributed_matrix: 28.392 [ms]
[OGL LOG][Proc: 0]p_matrix: call_update: 28.721 [ms]
[OGL LOG][Proc: 0]p_rhs: call_update: 0.617 [ms]
[OGL LOG][Proc: 0]p: init_precond: 0.031 [ms]
[OGL LOG][StoppingCriterion.H:239] Creating stopping criterion with minIter 1428 frequency 15
[OGL LOG][Proc: 0]p: generate_solver: 0.019 [ms]
[OGL LOG][Proc: 0]p: solve: 954.996 [ms]
[OGL LOG][Proc: 0]p: copy_x_back: 0.858 [ms]
[OGL LOG][lduLduBase.H:330] 
Statistics:
	Time per iteration: 662 [mu s]
	Time per residual norm calculation: 166.000000 [mu s]
	Time per iteration and DOF: 0.024519 [ns]
	Retrieve results bandwidth 3.146000 [GByte/s]
[OGL LOG][Proc: 0]p: solve_multi_gpu: 987.004 [ms]
nonedpcppGKOCG:  Solving for p, Initial residual = 0.916446, Final residual = 6.84625e-05, No Iterations 1441
[INFO] SolveP: 993.068 [ms]
time step continuity errors : sum local = 7.8592e-09, global = 7.05646e-22, cumulative = -9.27435e-22
[INFO] ContinuityError: 7.115 [ms]
[INFO] CorrectBoundary: 0.296 [ms]
[INFO] PISOStep: 1063.12 [ms]
[INFO] MatrixAssemblyPI: 31.854 [ms]
[INFO] AdjustPhi: 6.013 [ms]
[INFO] ConstrainPressure: 0.001 [ms]
[INFO] MatrixAssemblyPII: 9.655 [ms]
[OGL LOG][Proc: 0]: global_index_init: 0.092 [ms]
[OGL LOG][Proc: 0]p_local_coeffs: call_update: 0 [ms]
[OGL LOG][Proc: 0]p_non_local_coeffs: call_update: 0 [ms]
[OGL LOG][Proc: 0]p: update_local_matrix_data: 4.396 [ms]
[OGL LOG][Proc: 0]p: update_non_local_matrix_data: 0.264 [ms]
[OGL LOG][Proc: 0]p: regenerate_distributed_matrix: 29.101 [ms]
[OGL LOG][Proc: 0]p_matrix: call_update: 29.436 [ms]
[OGL LOG][Proc: 0]p_rhs: call_update: 0.35 [ms]
[OGL LOG][Proc: 0]p: init_precond: 0.045 [ms]
[OGL LOG][StoppingCriterion.H:239] Creating stopping criterion with minIter 864 frequency 13
[OGL LOG][Proc: 0]p: generate_solver: 0.019 [ms]
[OGL LOG][Proc: 0]p: solve: 766.33 [ms]
[OGL LOG][Proc: 0]p: copy_x_back: 0.587 [ms]
[OGL LOG][lduLduBase.H:330] 
Statistics:
	Time per iteration: 661 [mu s]
	Time per residual norm calculation: 144.000000 [mu s]
	Time per iteration and DOF: 0.024481 [ns]
	Retrieve results bandwidth 4.599000 [GByte/s]
[OGL LOG][Proc: 0]p: solve_multi_gpu: 798.17 [ms]
nonedpcppGKOCG:  Solving for p, Initial residual = 0.883591, Final residual = 8.38487e-05, No Iterations 1158
[INFO] SolveP: 804.192 [ms]
time step continuity errors : sum local = 9.07022e-09, global = 1.28353e-21, cumulative = 3.56093e-22
[INFO] ContinuityError: 5.471 [ms]
[INFO] CorrectBoundary: 0.147 [ms]
[INFO] PISOStep: 870.48 [ms]
[INFO] TimeStep: 2279.71 [ms]
ExecutionTime = 17.81 s  ClockTime = 22 s

Time = 0.000664

Courant Number mean: 0.0238558 max: 0.471961
[INFO] MatrixAssemblyU: 27.81 [ms]
DILUPBiCGStab:  Solving for Ux, Initial residual = 0.0386037, Final residual = 0.00312397, No Iterations 5
DILUPBiCGStab:  Solving for Uy, Initial residual = 0.174108, Final residual = 0.0146962, No Iterations 5
DILUPBiCGStab:  Solving for Uz, Initial residual = 0.735464, Final residual = 0.0433287, No Iterations 5
[INFO] MomentumPredictor: 295.166 [ms]
[INFO] MatrixAssemblyPI: 31.187 [ms]
[INFO] AdjustPhi: 4.958 [ms]
[INFO] ConstrainPressure: 0.002 [ms]
[INFO] MatrixAssemblyPII: 9.374 [ms]
[OGL LOG][Proc: 0]: global_index_init: 0.08 [ms]
[OGL LOG][Proc: 0]p_local_coeffs: call_update: 0 [ms]
[OGL LOG][Proc: 0]p_non_local_coeffs: call_update: 0 [ms]
[OGL LOG][Proc: 0]p: update_local_matrix_data: 4.703 [ms]
[OGL LOG][Proc: 0]p: update_non_local_matrix_data: 0.254 [ms]
[OGL LOG][Proc: 0]p: regenerate_distributed_matrix: 27.752 [ms]
[OGL LOG][Proc: 0]p_matrix: call_update: 28.07 [ms]
[OGL LOG][Proc: 0]p_rhs: call_update: 0.483 [ms]
[OGL LOG][Proc: 0]p: init_precond: 0.042 [ms]
[OGL LOG][StoppingCriterion.H:239] Creating stopping criterion with minIter 694 frequency 10
[OGL LOG][Proc: 0]p: generate_solver: 0.017 [ms]
[OGL LOG][Proc: 0]p: solve: 779.273 [ms]
[OGL LOG][Proc: 0]p: copy_x_back: 0.54 [ms]
[OGL LOG][lduLduBase.H:330] 
Statistics:
	Time per iteration: 677 [mu s]
	Time per residual norm calculation: 144.000000 [mu s]
	Time per iteration and DOF: 0.025074 [ns]
	Retrieve results bandwidth 5.000000 [GByte/s]
[OGL LOG][Proc: 0]p: solve_multi_gpu: 809.663 [ms]
nonedpcppGKOCG:  Solving for p, Initial residual = 0.896077, Final residual = 9.70008e-05, No Iterations 1151
[INFO] SolveP: 816.182 [ms]
time step continuity errors : sum local = 1.21519e-08, global = 1.39646e-21, cumulative = 1.75256e-21
[INFO] ContinuityError: 4.792 [ms]
[INFO] CorrectBoundary: 1.243 [ms]
[INFO] PISOStep: 879.802 [ms]
[INFO] MatrixAssemblyPI: 30.9 [ms]
[INFO] AdjustPhi: 5.134 [ms]
[INFO] ConstrainPressure: 0.001 [ms]
[INFO] MatrixAssemblyPII: 9.619 [ms]
[OGL LOG][Proc: 0]: global_index_init: 0.096 [ms]
[OGL LOG][Proc: 0]p_local_coeffs: call_update: 0 [ms]
[OGL LOG][Proc: 0]p_non_local_coeffs: call_update: 0 [ms]
[OGL LOG][Proc: 0]p: update_local_matrix_data: 4.296 [ms]
[OGL LOG][Proc: 0]p: update_non_local_matrix_data: 0.239 [ms]
[OGL LOG][Proc: 0]p: regenerate_distributed_matrix: 27.798 [ms]
[OGL LOG][Proc: 0]p_matrix: call_update: 28.116 [ms]
[OGL LOG][Proc: 0]p_rhs: call_update: 1.038 [ms]
[OGL LOG][Proc: 0]p: init_precond: 0.046 [ms]
[OGL LOG][StoppingCriterion.H:239] Creating stopping criterion with minIter 690 frequency 10
[OGL LOG][Proc: 0]p: generate_solver: 0.019 [ms]
[OGL LOG][Proc: 0]p: solve: 768.389 [ms]
[OGL LOG][Proc: 0]p: copy_x_back: 0.593 [ms]
[OGL LOG][lduLduBase.H:330] 
Statistics:
	Time per iteration: 667 [mu s]
	Time per residual norm calculation: 141.000000 [mu s]
	Time per iteration and DOF: 0.024704 [ns]
	Retrieve results bandwidth 4.553000 [GByte/s]
[OGL LOG][Proc: 0]p: solve_multi_gpu: 799.641 [ms]
nonedpcppGKOCG:  Solving for p, Initial residual = 0.834822, Final residual = 8.29417e-05, No Iterations 1151
[INFO] SolveP: 805.839 [ms]
time step continuity errors : sum local = 1.01409e-08, global = 1.78957e-21, cumulative = 3.54213e-21
[INFO] ContinuityError: 5.819 [ms]
[INFO] CorrectBoundary: 0.477 [ms]
[INFO] PISOStep: 869.838 [ms]
[INFO] TimeStep: 2078.32 [ms]
ExecutionTime = 19.89 s  ClockTime = 24 s

Time = 0.00083

Courant Number mean: 0.0273595 max: 0.505578
[INFO] MatrixAssemblyU: 27.622 [ms]
DILUPBiCGStab:  Solving for Ux, Initial residual = 0.0324928, Final residual = 0.0026607, No Iterations 5
DILUPBiCGStab:  Solving for Uy, Initial residual = 0.130461, Final residual = 0.0121427, No Iterations 5
DILUPBiCGStab:  Solving for Uz, Initial residual = 0.683007, Final residual = 0.0372158, No Iterations 5
[INFO] MomentumPredictor: 299.577 [ms]
[INFO] MatrixAssemblyPI: 31.27 [ms]
[INFO] AdjustPhi: 5.809 [ms]
[INFO] ConstrainPressure: 0.001 [ms]
[INFO] MatrixAssemblyPII: 9.328 [ms]
[OGL LOG][Proc: 0]: global_index_init: 0.152 [ms]
[OGL LOG][Proc: 0]p_local_coeffs: call_update: 0 [ms]
[OGL LOG][Proc: 0]p_non_local_coeffs: call_update: 0 [ms]
[OGL LOG][Proc: 0]p: update_local_matrix_data: 4.877 [ms]
[OGL LOG][Proc: 0]p: update_non_local_matrix_data: 0.26 [ms]
[OGL LOG][Proc: 0]p: regenerate_distributed_matrix: 27.166 [ms]
[OGL LOG][Proc: 0]p_matrix: call_update: 27.501 [ms]
[OGL LOG][Proc: 0]p_rhs: call_update: 0.76 [ms]
[OGL LOG][Proc: 0]p: init_precond: 0.047 [ms]
[OGL LOG][StoppingCriterion.H:239] Creating stopping criterion with minIter 690 frequency 10
[OGL LOG][Proc: 0]p: generate_solver: 0.019 [ms]
[OGL LOG][Proc: 0]p: solve: 1610.86 [ms]
[OGL LOG][Proc: 0]p: copy_x_back: 0.563 [ms]
[OGL LOG][lduLduBase.H:330] 
Statistics:
	Time per iteration: 676 [mu s]
	Time per residual norm calculation: 142.000000 [mu s]
	Time per iteration and DOF: 0.025037 [ns]
	Retrieve results bandwidth 4.795000 [GByte/s]
[OGL LOG][Proc: 0]p: solve_multi_gpu: 1640.78 [ms]
nonedpcppGKOCG:  Solving for p, Initial residual = 0.913432, Final residual = 8.6545e-05, No Iterations 2381
[INFO] SolveP: 1647.39 [ms]
time step continuity errors : sum local = 9.87313e-09, global = -3.57612e-22, cumulative = 3.18452e-21
[INFO] ContinuityError: 6.695 [ms]
[INFO] CorrectBoundary: 0.61 [ms]
[INFO] PISOStep: 1718.32 [ms]
[INFO] MatrixAssemblyPI: 31.149 [ms]
[INFO] AdjustPhi: 8.719 [ms]
[INFO] ConstrainPressure: 0.001 [ms]
[INFO] MatrixAssemblyPII: 9.839 [ms]
[OGL LOG][Proc: 0]: global_index_init: 0.087 [ms]
[OGL LOG][Proc: 0]p_local_coeffs: call_update: 0 [ms]
[OGL LOG][Proc: 0]p_non_local_coeffs: call_update: 0 [ms]
[OGL LOG][Proc: 0]p: update_local_matrix_data: 4.468 [ms]
[OGL LOG][Proc: 0]p: update_non_local_matrix_data: 0.237 [ms]
[OGL LOG][Proc: 0]p: regenerate_distributed_matrix: 28.846 [ms]
[OGL LOG][Proc: 0]p_matrix: call_update: 29.179 [ms]
[OGL LOG][Proc: 0]p_rhs: call_update: 0.978 [ms]
[OGL LOG][Proc: 0]p: init_precond: 0.054 [ms]
[OGL LOG][StoppingCriterion.H:239] Creating stopping criterion with minIter 1428 frequency 15
[OGL LOG][Proc: 0]p: generate_solver: 0.018 [ms]
[OGL LOG][Proc: 0]p: solve: 1595.72 [ms]
[OGL LOG][Proc: 0]p: copy_x_back: 0.563 [ms]
[OGL LOG][lduLduBase.H:330] 
Statistics:
	Time per iteration: 668 [mu s]
	Time per residual norm calculation: 143.000000 [mu s]
	Time per iteration and DOF: 0.024741 [ns]
	Retrieve results bandwidth 4.795000 [GByte/s]
[OGL LOG][Proc: 0]p: solve_multi_gpu: 1628.08 [ms]
nonedpcppGKOCG:  Solving for p, Initial residual = 0.873769, Final residual = 7.45857e-05, No Iterations 2386
[INFO] SolveP: 1634.17 [ms]
time step continuity errors : sum local = 8.39555e-09, global = 1.32689e-21, cumulative = 4.51141e-21
[INFO] ContinuityError: 7.734 [ms]
[INFO] CorrectBoundary: 0.471 [ms]
[INFO] PISOStep: 1706.14 [ms]
[INFO] TimeStep: 3757.42 [ms]
ExecutionTime = 23.65 s  ClockTime = 28 s

Time = 0.000996

Courant Number mean: 0.0300845 max: 0.478326
[INFO] MatrixAssemblyU: 27.778 [ms]
DILUPBiCGStab:  Solving for Ux, Initial residual = 0.0272319, Final residual = 0.00242042, No Iterations 5
DILUPBiCGStab:  Solving for Uy, Initial residual = 0.112407, Final residual = 0.00976409, No Iterations 5
DILUPBiCGStab:  Solving for Uz, Initial residual = 0.589768, Final residual = 0.0288998, No Iterations 5
[INFO] MomentumPredictor: 300.02 [ms]
[INFO] MatrixAssemblyPI: 31.577 [ms]
[INFO] AdjustPhi: 6.157 [ms]
[INFO] ConstrainPressure: 0.001 [ms]
[INFO] MatrixAssemblyPII: 9.27 [ms]
[OGL LOG][Proc: 0]: global_index_init: 0.051 [ms]
[OGL LOG][Proc: 0]p_local_coeffs: call_update: 0 [ms]
[OGL LOG][Proc: 0]p_non_local_coeffs: call_update: 0 [ms]
[OGL LOG][Proc: 0]p: update_local_matrix_data: 4.935 [ms]
[OGL LOG][Proc: 0]p: update_non_local_matrix_data: 0.249 [ms]
[OGL LOG][Proc: 0]p: regenerate_distributed_matrix: 27.074 [ms]
[OGL LOG][Proc: 0]p_matrix: call_update: 27.398 [ms]
[OGL LOG][Proc: 0]p_rhs: call_update: 1.217 [ms]
[OGL LOG][Proc: 0]p: init_precond: 0.045 [ms]
[OGL LOG][StoppingCriterion.H:239] Creating stopping criterion with minIter 1431 frequency 15
[OGL LOG][Proc: 0]p: generate_solver: 0.019 [ms]
[OGL LOG][Proc: 0]p: solve: 1575.92 [ms]
[OGL LOG][Proc: 0]p: copy_x_back: 0.567 [ms]
[OGL LOG][lduLduBase.H:330] 
Statistics:
	Time per iteration: 664 [mu s]
	Time per residual norm calculation: 142.000000 [mu s]
	Time per iteration and DOF: 0.024593 [ns]
	Retrieve results bandwidth 4.761000 [GByte/s]
[OGL LOG][Proc: 0]p: solve_multi_gpu: 1606 [ms]
nonedpcppGKOCG:  Solving for p, Initial residual = 0.893116, Final residual = 9.72326e-05, No Iterations 2371
[INFO] SolveP: 1612.58 [ms]
time step continuity errors : sum local = 1.147e-08, global = 5.85563e-22, cumulative = 5.09697e-21
[INFO] ContinuityError: 5.795 [ms]
[INFO] CorrectBoundary: 0.221 [ms]
[INFO] PISOStep: 1678.13 [ms]
[INFO] MatrixAssemblyPI: 31.53 [ms]
[INFO] AdjustPhi: 5.014 [ms]
[INFO] ConstrainPressure: 0.001 [ms]
[INFO] MatrixAssemblyPII: 9.632 [ms]
[OGL LOG][Proc: 0]: global_index_init: 0.073 [ms]
[OGL LOG][Proc: 0]p_local_coeffs: call_update: 0 [ms]
[OGL LOG][Proc: 0]p_non_local_coeffs: call_update: 0 [ms]
[OGL LOG][Proc: 0]p: update_local_matrix_data: 4.424 [ms]
[OGL LOG][Proc: 0]p: update_non_local_matrix_data: 0.252 [ms]
[OGL LOG][Proc: 0]p: regenerate_distributed_matrix: 29.653 [ms]
[OGL LOG][Proc: 0]p_matrix: call_update: 29.979 [ms]
[OGL LOG][Proc: 0]p_rhs: call_update: 0.522 [ms]
[OGL LOG][Proc: 0]p: init_precond: 0.046 [ms]
[OGL LOG][StoppingCriterion.H:239] Creating stopping criterion with minIter 1422 frequency 15
[OGL LOG][Proc: 0]p: generate_solver: 0.019 [ms]
[OGL LOG][Proc: 0]p: solve: 1570.01 [ms]
[OGL LOG][Proc: 0]p: copy_x_back: 0.539 [ms]
[OGL LOG][lduLduBase.H:330] 
Statistics:
	Time per iteration: 666 [mu s]
	Time per residual norm calculation: 142.000000 [mu s]
	Time per iteration and DOF: 0.024667 [ns]
	Retrieve results bandwidth 5.009000 [GByte/s]
[OGL LOG][Proc: 0]p: solve_multi_gpu: 1602.56 [ms]
nonedpcppGKOCG:  Solving for p, Initial residual = 0.828736, Final residual = 9.73124e-05, No Iterations 2356
[INFO] SolveP: 1608.54 [ms]
time step continuity errors : sum local = 1.16541e-08, global = -9.29173e-23, cumulative = 5.00405e-21
[INFO] ContinuityError: 5.086 [ms]
[INFO] CorrectBoundary: 0.289 [ms]
[INFO] PISOStep: 1673.42 [ms]
[INFO] TimeStep: 3685.76 [ms]
ExecutionTime = 27.34 s  ClockTime = 31 s

Time = 0.001162

Courant Number mean: 0.0325404 max: 0.512613
[INFO] MatrixAssemblyU: 27.703 [ms]
DILUPBiCGStab:  Solving for Ux, Initial residual = 0.0246936, Final residual = 0.00224373, No Iterations 5
DILUPBiCGStab:  Solving for Uy, Initial residual = 0.0992023, Final residual = 0.00894793, No Iterations 5
DILUPBiCGStab:  Solving for Uz, Initial residual = 0.563698, Final residual = 0.0252806, No Iterations 5
[INFO] MomentumPredictor: 299.766 [ms]
[INFO] MatrixAssemblyPI: 31.622 [ms]
[INFO] AdjustPhi: 5.315 [ms]
[INFO] ConstrainPressure: 0.001 [ms]
[INFO] MatrixAssemblyPII: 9.558 [ms]
[OGL LOG][Proc: 0]: global_index_init: 1.591 [ms]
[OGL LOG][Proc: 0]p_local_coeffs: call_update: 0 [ms]
[OGL LOG][Proc: 0]p_non_local_coeffs: call_update: 0 [ms]
[OGL LOG][Proc: 0]p: update_local_matrix_data: 4.531 [ms]
[OGL LOG][Proc: 0]p: update_non_local_matrix_data: 0.235 [ms]
[OGL LOG][Proc: 0]p: regenerate_distributed_matrix: 27.583 [ms]
[OGL LOG][Proc: 0]p_matrix: call_update: 27.915 [ms]
[OGL LOG][Proc: 0]p_rhs: call_update: 0.769 [ms]
[OGL LOG][Proc: 0]p: init_precond: 0.046 [ms]
[OGL LOG][StoppingCriterion.H:239] Creating stopping criterion with minIter 1413 frequency 15
[OGL LOG][Proc: 0]p: generate_solver: 0.02 [ms]
[OGL LOG][Proc: 0]p: solve: 1531.39 [ms]
[OGL LOG][Proc: 0]p: copy_x_back: 0.576 [ms]
[OGL LOG][lduLduBase.H:330] 
Statistics:
	Time per iteration: 662 [mu s]
	Time per residual norm calculation: 143.000000 [mu s]
	Time per iteration and DOF: 0.024519 [ns]
	Retrieve results bandwidth 4.687000 [GByte/s]
[OGL LOG][Proc: 0]p: solve_multi_gpu: 1562.29 [ms]
nonedpcppGKOCG:  Solving for p, Initial residual = 0.909343, Final residual = 9.49335e-05, No Iterations 2311
[INFO] SolveP: 1570.14 [ms]
time step continuity errors : sum local = 1.08264e-08, global = -4.7407e-22, cumulative = 4.52998e-21
[INFO] ContinuityError: 6.637 [ms]
[INFO] CorrectBoundary: 0.283 [ms]
[INFO] PISOStep: 1636.65 [ms]
[INFO] MatrixAssemblyPI: 31.047 [ms]
[INFO] AdjustPhi: 5.016 [ms]
[INFO] ConstrainPressure: 0.001 [ms]
[INFO] MatrixAssemblyPII: 10.068 [ms]
[OGL LOG][Proc: 0]: global_index_init: 0.064 [ms]
[OGL LOG][Proc: 0]p_local_coeffs: call_update: 0 [ms]
[OGL LOG][Proc: 0]p_non_local_coeffs: call_update: 0 [ms]
[OGL LOG][Proc: 0]p: update_local_matrix_data: 4.262 [ms]
[OGL LOG][Proc: 0]p: update_non_local_matrix_data: 0.228 [ms]
[OGL LOG][Proc: 0]p: regenerate_distributed_matrix: 27.222 [ms]
[OGL LOG][Proc: 0]p_matrix: call_update: 27.558 [ms]
[OGL LOG][Proc: 0]p_rhs: call_update: 0.728 [ms]
[OGL LOG][Proc: 0]p: init_precond: 0.046 [ms]
[OGL LOG][StoppingCriterion.H:239] Creating stopping criterion with minIter 1386 frequency 15
[OGL LOG][Proc: 0]p: generate_solver: 0.018 [ms]
[OGL LOG][Proc: 0]p: solve: 1554.85 [ms]
[OGL LOG][Proc: 0]p: copy_x_back: 0.609 [ms]
[OGL LOG][lduLduBase.H:330] 
Statistics:
	Time per iteration: 672 [mu s]
	Time per residual norm calculation: 143.000000 [mu s]
	Time per iteration and DOF: 0.024889 [ns]
	Retrieve results bandwidth 4.433000 [GByte/s]
[OGL LOG][Proc: 0]p: solve_multi_gpu: 1585.7 [ms]
nonedpcppGKOCG:  Solving for p, Initial residual = 0.863264, Final residual = 9.12022e-05, No Iterations 2311
[INFO] SolveP: 1591.59 [ms]
time step continuity errors : sum local = 1.02833e-08, global = -2.55546e-22, cumulative = 4.27444e-21
[INFO] ContinuityError: 7.721 [ms]
[INFO] CorrectBoundary: 0.413 [ms]
[INFO] PISOStep: 1658.74 [ms]
[INFO] TimeStep: 3627.72 [ms]
ExecutionTime = 30.96 s  ClockTime = 35 s

Time = 0.001328

Courant Number mean: 0.0346052 max: 0.481253
[INFO] MatrixAssemblyU: 28.049 [ms]
DILUPBiCGStab:  Solving for Ux, Initial residual = 0.0223029, Final residual = 0.00210626, No Iterations 5
DILUPBiCGStab:  Solving for Uy, Initial residual = 0.0877845, Final residual = 0.00753911, No Iterations 5
DILUPBiCGStab:  Solving for Uz, Initial residual = 0.521188, Final residual = 0.0228586, No Iterations 5
[INFO] MomentumPredictor: 298.901 [ms]
[INFO] MatrixAssemblyPI: 31.443 [ms]
[INFO] AdjustPhi: 5.312 [ms]
[INFO] ConstrainPressure: 0.001 [ms]
[INFO] MatrixAssemblyPII: 9.592 [ms]
[OGL LOG][Proc: 0]: global_index_init: 0.067 [ms]
[OGL LOG][Proc: 0]p_local_coeffs: call_update: 0 [ms]
[OGL LOG][Proc: 0]p_non_local_coeffs: call_update: 0 [ms]
[OGL LOG][Proc: 0]p: update_local_matrix_data: 4.509 [ms]
[OGL LOG][Proc: 0]p: update_non_local_matrix_data: 0.253 [ms]
[OGL LOG][Proc: 0]p: regenerate_distributed_matrix: 27.302 [ms]
[OGL LOG][Proc: 0]p_matrix: call_update: 27.62 [ms]
[OGL LOG][Proc: 0]p_rhs: call_update: 0.568 [ms]
[OGL LOG][Proc: 0]p: init_precond: 0.048 [ms]
[OGL LOG][StoppingCriterion.H:239] Creating stopping criterion with minIter 1386 frequency 15
[OGL LOG][Proc: 0]p: generate_solver: 0.019 [ms]
[OGL LOG][Proc: 0]p: solve: 1534.71 [ms]
[OGL LOG][Proc: 0]p: copy_x_back: 0.862 [ms]
[OGL LOG][lduLduBase.H:330] 
Statistics:
	Time per iteration: 664 [mu s]
	Time per residual norm calculation: 146.000000 [mu s]
	Time per iteration and DOF: 0.024593 [ns]
	Retrieve results bandwidth 3.132000 [GByte/s]
[OGL LOG][Proc: 0]p: solve_multi_gpu: 1565.37 [ms]
nonedpcppGKOCG:  Solving for p, Initial residual = 0.889291, Final residual = 9.88985e-05, No Iterations 2311
[INFO] SolveP: 1572.03 [ms]
time step continuity errors : sum local = 1.15491e-08, global = 8.31514e-22, cumulative = 5.10595e-21
[INFO] ContinuityError: 6.396 [ms]
[INFO] CorrectBoundary: 1.733 [ms]
[INFO] PISOStep: 1641.08 [ms]
[INFO] MatrixAssemblyPI: 32.78 [ms]
[INFO] AdjustPhi: 5.614 [ms]
[INFO] ConstrainPressure: 0.001 [ms]
[INFO] MatrixAssemblyPII: 10.094 [ms]
[OGL LOG][Proc: 0]: global_index_init: 0.085 [ms]
[OGL LOG][Proc: 0]p_local_coeffs: call_update: 0 [ms]
[OGL LOG][Proc: 0]p_non_local_coeffs: call_update: 0 [ms]
[OGL LOG][Proc: 0]p: update_local_matrix_data: 4.437 [ms]
[OGL LOG][Proc: 0]p: update_non_local_matrix_data: 0.269 [ms]
[OGL LOG][Proc: 0]p: regenerate_distributed_matrix: 28.085 [ms]
[OGL LOG][Proc: 0]p_matrix: call_update: 28.498 [ms]
[OGL LOG][Proc: 0]p_rhs: call_update: 0.764 [ms]
[OGL LOG][Proc: 0]p: init_precond: 0.039 [ms]
[OGL LOG][StoppingCriterion.H:239] Creating stopping criterion with minIter 1386 frequency 15
[OGL LOG][Proc: 0]p: generate_solver: 0.018 [ms]
[OGL LOG][Proc: 0]p: solve: 1590.97 [ms]
[OGL LOG][Proc: 0]p: copy_x_back: 0.548 [ms]
[OGL LOG][lduLduBase.H:330] 
Statistics:
	Time per iteration: 688 [mu s]
	Time per residual norm calculation: 146.000000 [mu s]
	Time per iteration and DOF: 0.025481 [ns]
	Retrieve results bandwidth 4.927000 [GByte/s]
[OGL LOG][Proc: 0]p: solve_multi_gpu: 1622.69 [ms]
nonedpcppGKOCG:  Solving for p, Initial residual = 0.822376, Final residual = 9.27909e-05, No Iterations 2311
[INFO] SolveP: 1629.04 [ms]
time step continuity errors : sum local = 1.09851e-08, global = 3.2732e-22, cumulative = 5.43327e-21
[INFO] ContinuityError: 6.953 [ms]
[INFO] CorrectBoundary: 1.591 [ms]
[INFO] PISOStep: 1701.79 [ms]
[INFO] TimeStep: 3676.27 [ms]
ExecutionTime = 34.64 s  ClockTime = 39 s

Time = 0.001494

Courant Number mean: 0.0365321 max: 0.518829
[INFO] MatrixAssemblyU: 27.687 [ms]
DILUPBiCGStab:  Solving for Ux, Initial residual = 0.0207125, Final residual = 0.00196813, No Iterations 5
DILUPBiCGStab:  Solving for Uy, Initial residual = 0.0827867, Final residual = 0.00711837, No Iterations 5
DILUPBiCGStab:  Solving for Uz, Initial residual = 0.516735, Final residual = 0.0212541, No Iterations 5
[INFO] MomentumPredictor: 297.412 [ms]
[INFO] MatrixAssemblyPI: 31.361 [ms]
[INFO] AdjustPhi: 5.605 [ms]
[INFO] ConstrainPressure: 0.002 [ms]
[INFO] MatrixAssemblyPII: 9.529 [ms]
[OGL LOG][Proc: 0]: global_index_init: 0.071 [ms]
[OGL LOG][Proc: 0]p_local_coeffs: call_update: 0 [ms]
[OGL LOG][Proc: 0]p_non_local_coeffs: call_update: 0 [ms]
[OGL LOG][Proc: 0]p: update_local_matrix_data: 4.77 [ms]
[OGL LOG][Proc: 0]p: update_non_local_matrix_data: 0.257 [ms]
[OGL LOG][Proc: 0]p: regenerate_distributed_matrix: 27.314 [ms]
[OGL LOG][Proc: 0]p_matrix: call_update: 27.711 [ms]
[OGL LOG][Proc: 0]p_rhs: call_update: 0.386 [ms]
[OGL LOG][Proc: 0]p: init_precond: 0.046 [ms]
[OGL LOG][StoppingCriterion.H:239] Creating stopping criterion with minIter 1386 frequency 15
[OGL LOG][Proc: 0]p: generate_solver: 0.019 [ms]
[OGL LOG][Proc: 0]p: solve: 1565.29 [ms]
[OGL LOG][Proc: 0]p: copy_x_back: 0.564 [ms]
[OGL LOG][lduLduBase.H:330] 
Statistics:
	Time per iteration: 677 [mu s]
	Time per residual norm calculation: 142.000000 [mu s]
	Time per iteration and DOF: 0.025074 [ns]
	Retrieve results bandwidth 4.787000 [GByte/s]
[OGL LOG][Proc: 0]p: solve_multi_gpu: 1595.19 [ms]
nonedpcppGKOCG:  Solving for p, Initial residual = 0.905366, Final residual = 9.33717e-05, No Iterations 2311
[INFO] SolveP: 1601.54 [ms]
time step continuity errors : sum local = 1.06044e-08, global = 1.18724e-21, cumulative = 6.62051e-21
[INFO] ContinuityError: 5.356 [ms]
[INFO] CorrectBoundary: 0.157 [ms]
[INFO] PISOStep: 1665.91 [ms]
[INFO] MatrixAssemblyPI: 31.098 [ms]
[INFO] AdjustPhi: 6.284 [ms]
[INFO] ConstrainPressure: 0.001 [ms]
[INFO] MatrixAssemblyPII: 9.608 [ms]
[OGL LOG][Proc: 0]: global_index_init: 0.074 [ms]
[OGL LOG][Proc: 0]p_local_coeffs: call_update: 0 [ms]
[OGL LOG][Proc: 0]p_non_local_coeffs: call_update: 0 [ms]
[OGL LOG][Proc: 0]p: update_local_matrix_data: 4.296 [ms]
[OGL LOG][Proc: 0]p: update_non_local_matrix_data: 0.218 [ms]
[OGL LOG][Proc: 0]p: regenerate_distributed_matrix: 28.492 [ms]
[OGL LOG][Proc: 0]p_matrix: call_update: 28.834 [ms]
[OGL LOG][Proc: 0]p_rhs: call_update: 0.956 [ms]
[OGL LOG][Proc: 0]p: init_precond: 0.051 [ms]
[OGL LOG][StoppingCriterion.H:239] Creating stopping criterion with minIter 1386 frequency 15
[OGL LOG][Proc: 0]p: generate_solver: 0.019 [ms]
[OGL LOG][Proc: 0]p: solve: 1578.72 [ms]
[OGL LOG][Proc: 0]p: copy_x_back: 0.564 [ms]
[OGL LOG][lduLduBase.H:330] 
Statistics:
	Time per iteration: 683 [mu s]
	Time per residual norm calculation: 157.000000 [mu s]
	Time per iteration and DOF: 0.025296 [ns]
	Retrieve results bandwidth 4.787000 [GByte/s]
[OGL LOG][Proc: 0]p: solve_multi_gpu: 1610.5 [ms]
nonedpcppGKOCG:  Solving for p, Initial residual = 0.854686, Final residual = 8.96516e-05, No Iterations 2311
[INFO] SolveP: 1616.47 [ms]
time step continuity errors : sum local = 1.00791e-08, global = -3.17234e-22, cumulative = 6.30327e-21
[INFO] ContinuityError: 4.892 [ms]
[INFO] CorrectBoundary: 0.183 [ms]
[INFO] PISOStep: 1680.66 [ms]
[INFO] TimeStep: 3676.94 [ms]
ExecutionTime = 38.32 s  ClockTime = 42 s

Time = 0.00166

Courant Number mean: 0.0382061 max: 0.483764
[INFO] MatrixAssemblyU: 27.873 [ms]
DILUPBiCGStab:  Solving for Ux, Initial residual = 0.0195148, Final residual = 0.00187882, No Iterations 5
DILUPBiCGStab:  Solving for Uy, Initial residual = 0.0743603, Final residual = 0.00617468, No Iterations 5
DILUPBiCGStab:  Solving for Uz, Initial residual = 0.493554, Final residual = 0.0200977, No Iterations 5
[INFO] MomentumPredictor: 297.545 [ms]
[INFO] MatrixAssemblyPI: 31.091 [ms]
[INFO] AdjustPhi: 5.312 [ms]
[INFO] ConstrainPressure: 0.001 [ms]
[INFO] MatrixAssemblyPII: 9.694 [ms]
[OGL LOG][Proc: 0]: global_index_init: 0.064 [ms]
[OGL LOG][Proc: 0]p_local_coeffs: call_update: 0 [ms]
[OGL LOG][Proc: 0]p_non_local_coeffs: call_update: 0 [ms]
[OGL LOG][Proc: 0]p: update_local_matrix_data: 4.515 [ms]
[OGL LOG][Proc: 0]p: update_non_local_matrix_data: 0.252 [ms]
[OGL LOG][Proc: 0]p: regenerate_distributed_matrix: 27.337 [ms]
[OGL LOG][Proc: 0]p_matrix: call_update: 27.762 [ms]
[OGL LOG][Proc: 0]p_rhs: call_update: 0.575 [ms]
[OGL LOG][Proc: 0]p: init_precond: 0.048 [ms]
[OGL LOG][StoppingCriterion.H:239] Creating stopping criterion with minIter 1386 frequency 15
[OGL LOG][Proc: 0]p: generate_solver: 0.018 [ms]
[OGL LOG][Proc: 0]p: solve: 1573.68 [ms]
[OGL LOG][Proc: 0]p: copy_x_back: 0.545 [ms]
[OGL LOG][lduLduBase.H:330] 
Statistics:
	Time per iteration: 680 [mu s]
	Time per residual norm calculation: 141.000000 [mu s]
	Time per iteration and DOF: 0.025185 [ns]
	Retrieve results bandwidth 4.954000 [GByte/s]
[OGL LOG][Proc: 0]p: solve_multi_gpu: 1604.21 [ms]
nonedpcppGKOCG:  Solving for p, Initial residual = 0.887845, Final residual = 8.5189e-05, No Iterations 2311
[INFO] SolveP: 1610.85 [ms]
time step continuity errors : sum local = 1.00203e-08, global = 1.37981e-21, cumulative = 7.68308e-21
[INFO] ContinuityError: 5.74 [ms]
[INFO] CorrectBoundary: 0.185 [ms]
[INFO] PISOStep: 1675.35 [ms]
[INFO] MatrixAssemblyPI: 33.074 [ms]
[INFO] AdjustPhi: 4.588 [ms]
[INFO] ConstrainPressure: 0.002 [ms]
[INFO] MatrixAssemblyPII: 9.569 [ms]
[OGL LOG][Proc: 0]: global_index_init: 0.08 [ms]
[OGL LOG][Proc: 0]p_local_coeffs: call_update: 0 [ms]
[OGL LOG][Proc: 0]p_non_local_coeffs: call_update: 0 [ms]
[OGL LOG][Proc: 0]p: update_local_matrix_data: 4.346 [ms]
[OGL LOG][Proc: 0]p: update_non_local_matrix_data: 0.229 [ms]
[OGL LOG][Proc: 0]p: regenerate_distributed_matrix: 29.947 [ms]
[OGL LOG][Proc: 0]p_matrix: call_update: 30.327 [ms]
[OGL LOG][Proc: 0]p_rhs: call_update: 1.628 [ms]
[OGL LOG][Proc: 0]p: init_precond: 0.053 [ms]
[OGL LOG][StoppingCriterion.H:239] Creating stopping criterion with minIter 1386 frequency 15
[OGL LOG][Proc: 0]p: generate_solver: 0.019 [ms]
[OGL LOG][Proc: 0]p: solve: 1584.31 [ms]
[OGL LOG][Proc: 0]p: copy_x_back: 0.558 [ms]
[OGL LOG][lduLduBase.H:330] 
Statistics:
	Time per iteration: 685 [mu s]
	Time per residual norm calculation: 143.000000 [mu s]
	Time per iteration and DOF: 0.025370 [ns]
	Retrieve results bandwidth 4.838000 [GByte/s]
[OGL LOG][Proc: 0]p: solve_multi_gpu: 1618.75 [ms]
nonedpcppGKOCG:  Solving for p, Initial residual = 0.817728, Final residual = 7.96785e-05, No Iterations 2311
[INFO] SolveP: 1625 [ms]
time step continuity errors : sum local = 9.49056e-09, global = 1.29702e-21, cumulative = 8.9801e-21
[INFO] ContinuityError: 6.175 [ms]
[INFO] CorrectBoundary: 1.254 [ms]
[INFO] PISOStep: 1692.4 [ms]
[INFO] TimeStep: 3699.52 [ms]
ExecutionTime = 42.01 s  ClockTime = 46 s

Time = 0.001826

Courant Number mean: 0.0398077 max: 0.525478
[INFO] MatrixAssemblyU: 27.475 [ms]
DILUPBiCGStab:  Solving for Ux, Initial residual = 0.0183335, Final residual = 0.00175284, No Iterations 5
DILUPBiCGStab:  Solving for Uy, Initial residual = 0.0727414, Final residual = 0.00597319, No Iterations 5
DILUPBiCGStab:  Solving for Uz, Initial residual = 0.496135, Final residual = 0.0191043, No Iterations 5
[INFO] MomentumPredictor: 307.784 [ms]
[INFO] MatrixAssemblyPI: 32.505 [ms]
[INFO] AdjustPhi: 6.611 [ms]
[INFO] ConstrainPressure: 0.001 [ms]
[INFO] MatrixAssemblyPII: 9.461 [ms]
[OGL LOG][Proc: 0]: global_index_init: 0.061 [ms]
[OGL LOG][Proc: 0]p_local_coeffs: call_update: 0 [ms]
[OGL LOG][Proc: 0]p_non_local_coeffs: call_update: 0 [ms]
[OGL LOG][Proc: 0]p: update_local_matrix_data: 4.548 [ms]
[OGL LOG][Proc: 0]p: update_non_local_matrix_data: 0.236 [ms]
[OGL LOG][Proc: 0]p: regenerate_distributed_matrix: 28.803 [ms]
[OGL LOG][Proc: 0]p_matrix: call_update: 29.147 [ms]
[OGL LOG][Proc: 0]p_rhs: call_update: 0.799 [ms]
[OGL LOG][Proc: 0]p: init_precond: 0.043 [ms]
[OGL LOG][StoppingCriterion.H:239] Creating stopping criterion with minIter 1386 frequency 15
[OGL LOG][Proc: 0]p: generate_solver: 0.018 [ms]
[OGL LOG][Proc: 0]p: solve: 1569.01 [ms]
[OGL LOG][Proc: 0]p: copy_x_back: 0.57 [ms]
[OGL LOG][lduLduBase.H:330] 
Statistics:
	Time per iteration: 678 [mu s]
	Time per residual norm calculation: 140.000000 [mu s]
	Time per iteration and DOF: 0.025111 [ns]
	Retrieve results bandwidth 4.736000 [GByte/s]
[OGL LOG][Proc: 0]p: solve_multi_gpu: 1601.44 [ms]
nonedpcppGKOCG:  Solving for p, Initial residual = 0.905589, Final residual = 8.54226e-05, No Iterations 2311
[INFO] SolveP: 1607.55 [ms]
time step continuity errors : sum local = 9.94648e-09, global = 2.32808e-21, cumulative = 1.13082e-20
[INFO] ContinuityError: 7.777 [ms]
[INFO] CorrectBoundary: 0.19 [ms]
[INFO] PISOStep: 1676.74 [ms]
[INFO] MatrixAssemblyPI: 31.798 [ms]
[INFO] AdjustPhi: 8.017 [ms]
[INFO] ConstrainPressure: 0.001 [ms]
[INFO] MatrixAssemblyPII: 9.681 [ms]
[OGL LOG][Proc: 0]: global_index_init: 0.082 [ms]
[OGL LOG][Proc: 0]p_local_coeffs: call_update: 0 [ms]
[OGL LOG][Proc: 0]p_non_local_coeffs: call_update: 0 [ms]
[OGL LOG][Proc: 0]p: update_local_matrix_data: 4.335 [ms]
[OGL LOG][Proc: 0]p: update_non_local_matrix_data: 0.236 [ms]
[OGL LOG][Proc: 0]p: regenerate_distributed_matrix: 27.905 [ms]
[OGL LOG][Proc: 0]p_matrix: call_update: 28.243 [ms]
[OGL LOG][Proc: 0]p_rhs: call_update: 0.729 [ms]
[OGL LOG][Proc: 0]p: init_precond: 0.045 [ms]
[OGL LOG][StoppingCriterion.H:239] Creating stopping criterion with minIter 1386 frequency 15
[OGL LOG][Proc: 0]p: generate_solver: 0.019 [ms]
[OGL LOG][Proc: 0]p: solve: 1588.72 [ms]
[OGL LOG][Proc: 0]p: copy_x_back: 0.633 [ms]
[OGL LOG][lduLduBase.H:330] 
Statistics:
	Time per iteration: 687 [mu s]
	Time per residual norm calculation: 224.000000 [mu s]
	Time per iteration and DOF: 0.025444 [ns]
	Retrieve results bandwidth 4.265000 [GByte/s]
[OGL LOG][Proc: 0]p: solve_multi_gpu: 1619.98 [ms]
nonedpcppGKOCG:  Solving for p, Initial residual = 0.850014, Final residual = 8.16491e-05, No Iterations 2311
[INFO] SolveP: 1625.88 [ms]
time step continuity errors : sum local = 9.42474e-09, global = 2.82779e-22, cumulative = 1.1591e-20
[INFO] ContinuityError: 6.296 [ms]
[INFO] CorrectBoundary: 0.152 [ms]
[INFO] PISOStep: 1694.68 [ms]
[INFO] TimeStep: 3712.49 [ms]
ExecutionTime = 45.73 s  ClockTime = 50 s

Time = 0.001992

Courant Number mean: 0.0412195 max: 0.486912
[INFO] MatrixAssemblyU: 27.659 [ms]
DILUPBiCGStab:  Solving for Ux, Initial residual = 0.0177392, Final residual = 0.00170225, No Iterations 5
DILUPBiCGStab:  Solving for Uy, Initial residual = 0.0662039, Final residual = 0.00524359, No Iterations 5
DILUPBiCGStab:  Solving for Uz, Initial residual = 0.481795, Final residual = 0.018576, No Iterations 5
[INFO] MomentumPredictor: 299.668 [ms]
[INFO] MatrixAssemblyPI: 31.315 [ms]
[INFO] AdjustPhi: 5.528 [ms]
[INFO] ConstrainPressure: 0.002 [ms]
[INFO] MatrixAssemblyPII: 9.603 [ms]
[OGL LOG][Proc: 0]: global_index_init: 0.073 [ms]
[OGL LOG][Proc: 0]p_local_coeffs: call_update: 0 [ms]
[OGL LOG][Proc: 0]p_non_local_coeffs: call_update: 0 [ms]
[OGL LOG][Proc: 0]p: update_local_matrix_data: 4.726 [ms]
[OGL LOG][Proc: 0]p: update_non_local_matrix_data: 0.26 [ms]
[OGL LOG][Proc: 0]p: regenerate_distributed_matrix: 27.057 [ms]
[OGL LOG][Proc: 0]p_matrix: call_update: 27.409 [ms]
[OGL LOG][Proc: 0]p_rhs: call_update: 0.947 [ms]
[OGL LOG][Proc: 0]p: init_precond: 0.044 [ms]
[OGL LOG][StoppingCriterion.H:239] Creating stopping criterion with minIter 1386 frequency 17
[OGL LOG][Proc: 0]p: generate_solver: 0.019 [ms]
[OGL LOG][Proc: 0]p: solve: 1568.55 [ms]
[OGL LOG][Proc: 0]p: copy_x_back: 0.562 [ms]
[OGL LOG][lduLduBase.H:330] 
Statistics:
	Time per iteration: 683 [mu s]
	Time per residual norm calculation: 139.000000 [mu s]
	Time per iteration and DOF: 0.025296 [ns]
	Retrieve results bandwidth 4.804000 [GByte/s]
[OGL LOG][Proc: 0]p: solve_multi_gpu: 1598.78 [ms]
nonedpcppGKOCG:  Solving for p, Initial residual = 0.889415, Final residual = 9.89479e-05, No Iterations 2296
[INFO] SolveP: 1605.54 [ms]
time step continuity errors : sum local = 1.20252e-08, global = 1.23655e-21, cumulative = 1.28275e-20
[INFO] ContinuityError: 6.014 [ms]
[INFO] CorrectBoundary: 0.516 [ms]
[INFO] PISOStep: 1670.46 [ms]
[INFO] MatrixAssemblyPI: 31.095 [ms]
[INFO] AdjustPhi: 6.329 [ms]
[INFO] ConstrainPressure: 0.001 [ms]
[INFO] MatrixAssemblyPII: 9.688 [ms]
[OGL LOG][Proc: 0]: global_index_init: 0.068 [ms]
[OGL LOG][Proc: 0]p_local_coeffs: call_update: 0 [ms]
[OGL LOG][Proc: 0]p_non_local_coeffs: call_update: 0 [ms]
[OGL LOG][Proc: 0]p: update_local_matrix_data: 4.318 [ms]
[OGL LOG][Proc: 0]p: update_non_local_matrix_data: 0.261 [ms]
[OGL LOG][Proc: 0]p: regenerate_distributed_matrix: 28.648 [ms]
[OGL LOG][Proc: 0]p_matrix: call_update: 28.988 [ms]
[OGL LOG][Proc: 0]p_rhs: call_update: 0.776 [ms]
[OGL LOG][Proc: 0]p: init_precond: 0.044 [ms]
[OGL LOG][StoppingCriterion.H:239] Creating stopping criterion with minIter 1377 frequency 15
[OGL LOG][Proc: 0]p: generate_solver: 0.018 [ms]
[OGL LOG][Proc: 0]p: solve: 1581.34 [ms]
[OGL LOG][Proc: 0]p: copy_x_back: 0.546 [ms]
[OGL LOG][lduLduBase.H:330] 
Statistics:
	Time per iteration: 688 [mu s]
	Time per residual norm calculation: 142.000000 [mu s]
	Time per iteration and DOF: 0.025481 [ns]
	Retrieve results bandwidth 4.945000 [GByte/s]
[OGL LOG][Proc: 0]p: solve_multi_gpu: 1613.76 [ms]
nonedpcppGKOCG:  Solving for p, Initial residual = 0.817661, Final residual = 9.24177e-05, No Iterations 2296
[INFO] SolveP: 1619.64 [ms]
time step continuity errors : sum local = 1.13577e-08, global = 9.66101e-22, cumulative = 1.37936e-20
[INFO] ContinuityError: 5.57 [ms]
[INFO] CorrectBoundary: 0.249 [ms]
[INFO] PISOStep: 1685.61 [ms]
[INFO] TimeStep: 3689.28 [ms]
ExecutionTime = 49.41 s  ClockTime = 53 s

Time = 0.002158

Courant Number mean: 0.0425985 max: 0.533113
[INFO] MatrixAssemblyU: 27.445 [ms]
DILUPBiCGStab:  Solving for Ux, Initial residual = 0.0168028, Final residual = 0.00158056, No Iterations 5
DILUPBiCGStab:  Solving for Uy, Initial residual = 0.0662255, Final residual = 0.00518141, No Iterations 5
DILUPBiCGStab:  Solving for Uz, Initial residual = 0.488543, Final residual = 0.0180156, No Iterations 5
[INFO] MomentumPredictor: 299.463 [ms]
[INFO] MatrixAssemblyPI: 31.939 [ms]
[INFO] AdjustPhi: 5.154 [ms]
[INFO] ConstrainPressure: 0.001 [ms]
[INFO] MatrixAssemblyPII: 9.759 [ms]
[OGL LOG][Proc: 0]: global_index_init: 0.08 [ms]
[OGL LOG][Proc: 0]p_local_coeffs: call_update: 0 [ms]
[OGL LOG][Proc: 0]p_non_local_coeffs: call_update: 0 [ms]
[OGL LOG][Proc: 0]p: update_local_matrix_data: 4.697 [ms]
[OGL LOG][Proc: 0]p: update_non_local_matrix_data: 0.262 [ms]
[OGL LOG][Proc: 0]p: regenerate_distributed_matrix: 27.712 [ms]
[OGL LOG][Proc: 0]p_matrix: call_update: 28.048 [ms]
[OGL LOG][Proc: 0]p_rhs: call_update: 0.457 [ms]
[OGL LOG][Proc: 0]p: init_precond: 0.046 [ms]
[OGL LOG][StoppingCriterion.H:239] Creating stopping criterion with minIter 1377 frequency 15
[OGL LOG][Proc: 0]p: generate_solver: 0.019 [ms]
[OGL LOG][Proc: 0]p: solve: 1559.28 [ms]
[OGL LOG][Proc: 0]p: copy_x_back: 0.567 [ms]
[OGL LOG][lduLduBase.H:330] 
Statistics:
	Time per iteration: 679 [mu s]
	Time per residual norm calculation: 138.000000 [mu s]
	Time per iteration and DOF: 0.025148 [ns]
	Retrieve results bandwidth 4.761000 [GByte/s]
[OGL LOG][Proc: 0]p: solve_multi_gpu: 1589.86 [ms]
nonedpcppGKOCG:  Solving for p, Initial residual = 0.906441, Final residual = 9.67011e-05, No Iterations 2296
[INFO] SolveP: 1596.13 [ms]
time step continuity errors : sum local = 1.17194e-08, global = 1.7701e-21, cumulative = 1.55637e-20
[INFO] ContinuityError: 6.237 [ms]
[INFO] CorrectBoundary: 0.524 [ms]
[INFO] PISOStep: 1662.52 [ms]
[INFO] MatrixAssemblyPI: 31.102 [ms]
[INFO] AdjustPhi: 4.695 [ms]
[INFO] ConstrainPressure: 0.001 [ms]
[INFO] MatrixAssemblyPII: 10.05 [ms]
[OGL LOG][Proc: 0]: global_index_init: 0.049 [ms]
[OGL LOG][Proc: 0]p_local_coeffs: call_update: 0 [ms]
[OGL LOG][Proc: 0]p_non_local_coeffs: call_update: 0 [ms]
[OGL LOG][Proc: 0]p: update_local_matrix_data: 4.455 [ms]
[OGL LOG][Proc: 0]p: update_non_local_matrix_data: 0.231 [ms]
[OGL LOG][Proc: 0]p: regenerate_distributed_matrix: 28.286 [ms]
[OGL LOG][Proc: 0]p_matrix: call_update: 28.62 [ms]
[OGL LOG][Proc: 0]p_rhs: call_update: 0.605 [ms]
[OGL LOG][Proc: 0]p: init_precond: 0.046 [ms]
[OGL LOG][StoppingCriterion.H:239] Creating stopping criterion with minIter 1377 frequency 15
[OGL LOG][Proc: 0]p: generate_solver: 0.019 [ms]
[OGL LOG][Proc: 0]p: solve: 1591.9 [ms]
[OGL LOG][Proc: 0]p: copy_x_back: 0.562 [ms]
[OGL LOG][lduLduBase.H:330] 
Statistics:
	Time per iteration: 693 [mu s]
	Time per residual norm calculation: 140.000000 [mu s]
	Time per iteration and DOF: 0.025667 [ns]
	Retrieve results bandwidth 4.804000 [GByte/s]
[OGL LOG][Proc: 0]p: solve_multi_gpu: 1623.15 [ms]
nonedpcppGKOCG:  Solving for p, Initial residual = 0.847284, Final residual = 9.18669e-05, No Iterations 2296
[INFO] SolveP: 1629.15 [ms]
time step continuity errors : sum local = 1.10538e-08, global = 1.81675e-21, cumulative = 1.73805e-20
[INFO] ContinuityError: 4.944 [ms]
[INFO] CorrectBoundary: 0.992 [ms]
[INFO] PISOStep: 1692.61 [ms]
[INFO] TimeStep: 3687.42 [ms]
ExecutionTime = 53.1 s  ClockTime = 57 s

Time = 0.002324

Courant Number mean: 0.0438217 max: 0.490001
[INFO] MatrixAssemblyU: 27.897 [ms]
DILUPBiCGStab:  Solving for Ux, Initial residual = 0.0165524, Final residual = 0.00155804, No Iterations 5
DILUPBiCGStab:  Solving for Uy, Initial residual = 0.061052, Final residual = 0.00458473, No Iterations 5
DILUPBiCGStab:  Solving for Uz, Initial residual = 0.479249, Final residual = 0.0177025, No Iterations 5
[INFO] MomentumPredictor: 296.48 [ms]
[INFO] MatrixAssemblyPI: 31.61 [ms]
[INFO] AdjustPhi: 5.267 [ms]
[INFO] ConstrainPressure: 0.001 [ms]
[INFO] MatrixAssemblyPII: 9.575 [ms]
[OGL LOG][Proc: 0]: global_index_init: 0.083 [ms]
[OGL LOG][Proc: 0]p_local_coeffs: call_update: 0 [ms]
[OGL LOG][Proc: 0]p_non_local_coeffs: call_update: 0 [ms]
[OGL LOG][Proc: 0]p: update_local_matrix_data: 4.665 [ms]
[OGL LOG][Proc: 0]p: update_non_local_matrix_data: 0.263 [ms]
[OGL LOG][Proc: 0]p: regenerate_distributed_matrix: 28.168 [ms]
[OGL LOG][Proc: 0]p_matrix: call_update: 28.541 [ms]
[OGL LOG][Proc: 0]p_rhs: call_update: 0.515 [ms]
[OGL LOG][Proc: 0]p: init_precond: 0.033 [ms]
[OGL LOG][StoppingCriterion.H:239] Creating stopping criterion with minIter 1377 frequency 15
[OGL LOG][Proc: 0]p: generate_solver: 0.021 [ms]
[OGL LOG][Proc: 0]p: solve: 1587.1 [ms]
[OGL LOG][Proc: 0]p: copy_x_back: 0.586 [ms]
[OGL LOG][lduLduBase.H:330] 
Statistics:
	Time per iteration: 691 [mu s]
	Time per residual norm calculation: 144.000000 [mu s]
	Time per iteration and DOF: 0.025593 [ns]
	Retrieve results bandwidth 4.607000 [GByte/s]
[OGL LOG][Proc: 0]p: solve_multi_gpu: 1618.5 [ms]
nonedpcppGKOCG:  Solving for p, Initial residual = 0.891698, Final residual = 8.51884e-05, No Iterations 2296
[INFO] SolveP: 1624.75 [ms]
time step continuity errors : sum local = 1.07794e-08, global = 9.44835e-22, cumulative = 1.83253e-20
[INFO] ContinuityError: 6.618 [ms]
[INFO] CorrectBoundary: 1.334 [ms]
[INFO] PISOStep: 1691.45 [ms]
[INFO] MatrixAssemblyPI: 30.838 [ms]
[INFO] AdjustPhi: 5.29 [ms]
[INFO] ConstrainPressure: 0.001 [ms]
[INFO] MatrixAssemblyPII: 9.595 [ms]
[OGL LOG][Proc: 0]: global_index_init: 0.916 [ms]
[OGL LOG][Proc: 0]p_local_coeffs: call_update: 0 [ms]
[OGL LOG][Proc: 0]p_non_local_coeffs: call_update: 0 [ms]
[OGL LOG][Proc: 0]p: update_local_matrix_data: 4.231 [ms]
[OGL LOG][Proc: 0]p: update_non_local_matrix_data: 0.263 [ms]
[OGL LOG][Proc: 0]p: regenerate_distributed_matrix: 27.92 [ms]
[OGL LOG][Proc: 0]p_matrix: call_update: 28.273 [ms]
[OGL LOG][Proc: 0]p_rhs: call_update: 0.868 [ms]
[OGL LOG][Proc: 0]p: init_precond: 0.032 [ms]
[OGL LOG][StoppingCriterion.H:239] Creating stopping criterion with minIter 1377 frequency 15
[OGL LOG][Proc: 0]p: generate_solver: 0.014 [ms]
[OGL LOG][Proc: 0]p: solve: 1596.9 [ms]
[OGL LOG][Proc: 0]p: copy_x_back: 0.872 [ms]
[OGL LOG][lduLduBase.H:330] 
Statistics:
	Time per iteration: 695 [mu s]
	Time per residual norm calculation: 146.000000 [mu s]
	Time per iteration and DOF: 0.025741 [ns]
	Retrieve results bandwidth 3.096000 [GByte/s]
[OGL LOG][Proc: 0]p: solve_multi_gpu: 1628.31 [ms]
nonedpcppGKOCG:  Solving for p, Initial residual = 0.819078, Final residual = 8.39729e-05, No Iterations 2296
[INFO] SolveP: 1635.52 [ms]
time step continuity errors : sum local = 1.07291e-08, global = 2.24976e-21, cumulative = 2.05751e-20
[INFO] ContinuityError: 5.708 [ms]
[INFO] CorrectBoundary: 0.229 [ms]
[INFO] PISOStep: 1704.6 [ms]
[INFO] TimeStep: 3725.65 [ms]
ExecutionTime = 56.83 s  ClockTime = 61 s

Time = 0.00249

Courant Number mean: 0.0450387 max: 0.541793
[INFO] MatrixAssemblyU: 29.514 [ms]
DILUPBiCGStab:  Solving for Ux, Initial residual = 0.0158083, Final residual = 0.00144105, No Iterations 5
DILUPBiCGStab:  Solving for Uy, Initial residual = 0.0618467, Final residual = 0.00460132, No Iterations 5
DILUPBiCGStab:  Solving for Uz, Initial residual = 0.488072, Final residual = 0.0173685, No Iterations 5
[INFO] MomentumPredictor: 295.706 [ms]
[INFO] MatrixAssemblyPI: 31.992 [ms]
[INFO] AdjustPhi: 5.566 [ms]
[INFO] ConstrainPressure: 0.001 [ms]
[INFO] MatrixAssemblyPII: 9.654 [ms]
[OGL LOG][Proc: 0]: global_index_init: 0.072 [ms]
[OGL LOG][Proc: 0]p_local_coeffs: call_update: 0 [ms]
[OGL LOG][Proc: 0]p_non_local_coeffs: call_update: 0 [ms]
[OGL LOG][Proc: 0]p: update_local_matrix_data: 4.419 [ms]
[OGL LOG][Proc: 0]p: update_non_local_matrix_data: 0.277 [ms]
[OGL LOG][Proc: 0]p: regenerate_distributed_matrix: 28.678 [ms]
[OGL LOG][Proc: 0]p_matrix: call_update: 29.014 [ms]
[OGL LOG][Proc: 0]p_rhs: call_update: 0.497 [ms]
[OGL LOG][Proc: 0]p: init_precond: 0.041 [ms]
[OGL LOG][StoppingCriterion.H:239] Creating stopping criterion with minIter 1377 frequency 15
[OGL LOG][Proc: 0]p: generate_solver: 0.018 [ms]
[OGL LOG][Proc: 0]p: solve: 1590.91 [ms]
[OGL LOG][Proc: 0]p: copy_x_back: 0.576 [ms]
[OGL LOG][lduLduBase.H:330] 
Statistics:
	Time per iteration: 692 [mu s]
	Time per residual norm calculation: 172.000000 [mu s]
	Time per iteration and DOF: 0.025630 [ns]
	Retrieve results bandwidth 4.687000 [GByte/s]
[OGL LOG][Proc: 0]p: solve_multi_gpu: 1622.78 [ms]
nonedpcppGKOCG:  Solving for p, Initial residual = 0.907422, Final residual = 9.32224e-05, No Iterations 2296
[INFO] SolveP: 1628.78 [ms]
time step continuity errors : sum local = 1.18098e-08, global = 1.56261e-21, cumulative = 2.21377e-20
[INFO] ContinuityError: 6.833 [ms]
[INFO] CorrectBoundary: 0.212 [ms]
[INFO] PISOStep: 1696.41 [ms]
[INFO] MatrixAssemblyPI: 33.104 [ms]
[INFO] AdjustPhi: 6.537 [ms]
[INFO] ConstrainPressure: 0.001 [ms]
[INFO] MatrixAssemblyPII: 10.308 [ms]
[OGL LOG][Proc: 0]: global_index_init: 0.048 [ms]
[OGL LOG][Proc: 0]p_local_coeffs: call_update: 0 [ms]
[OGL LOG][Proc: 0]p_non_local_coeffs: call_update: 0 [ms]
[OGL LOG][Proc: 0]p: update_local_matrix_data: 4.139 [ms]
[OGL LOG][Proc: 0]p: update_non_local_matrix_data: 0.252 [ms]
[OGL LOG][Proc: 0]p: regenerate_distributed_matrix: 28.442 [ms]
[OGL LOG][Proc: 0]p_matrix: call_update: 28.779 [ms]
[OGL LOG][Proc: 0]p_rhs: call_update: 0.868 [ms]
[OGL LOG][Proc: 0]p: init_precond: 0.047 [ms]
[OGL LOG][StoppingCriterion.H:239] Creating stopping criterion with minIter 1377 frequency 15
[OGL LOG][Proc: 0]p: generate_solver: 0.018 [ms]
[OGL LOG][Proc: 0]p: solve: 1585.9 [ms]
[OGL LOG][Proc: 0]p: copy_x_back: 0.551 [ms]
[OGL LOG][lduLduBase.H:330] 
Statistics:
	Time per iteration: 690 [mu s]
	Time per residual norm calculation: 141.000000 [mu s]
	Time per iteration and DOF: 0.025556 [ns]
	Retrieve results bandwidth 4.900000 [GByte/s]
[OGL LOG][Proc: 0]p: solve_multi_gpu: 1618.1 [ms]
nonedpcppGKOCG:  Solving for p, Initial residual = 0.845424, Final residual = 8.81915e-05, No Iterations 2296
[INFO] SolveP: 1623.82 [ms]
time step continuity errors : sum local = 1.1108e-08, global = 9.48302e-22, cumulative = 2.3086e-20
[INFO] ContinuityError: 6.895 [ms]
[INFO] CorrectBoundary: 0.14 [ms]
[INFO] PISOStep: 1694.9 [ms]
[INFO] TimeStep: 3722.87 [ms]
ExecutionTime = 60.55 s  ClockTime = 65 s

Time = 0.002656

Courant Number mean: 0.046118 max: 0.49313
[INFO] MatrixAssemblyU: 27.879 [ms]
DILUPBiCGStab:  Solving for Ux, Initial residual = 0.0157647, Final residual = 0.00143774, No Iterations 5
DILUPBiCGStab:  Solving for Uy, Initial residual = 0.0577603, Final residual = 0.00410232, No Iterations 5
DILUPBiCGStab:  Solving for Uz, Initial residual = 0.481654, Final residual = 0.0171358, No Iterations 5
[INFO] MomentumPredictor: 298.46 [ms]
[INFO] MatrixAssemblyPI: 32.969 [ms]
[INFO] AdjustPhi: 3.764 [ms]
[INFO] ConstrainPressure: 0.001 [ms]
[INFO] MatrixAssemblyPII: 9.329 [ms]
[OGL LOG][Proc: 0]: global_index_init: 0.087 [ms]
[OGL LOG][Proc: 0]p_local_coeffs: call_update: 0 [ms]
[OGL LOG][Proc: 0]p_non_local_coeffs: call_update: 0 [ms]
[OGL LOG][Proc: 0]p: update_local_matrix_data: 4.555 [ms]
[OGL LOG][Proc: 0]p: update_non_local_matrix_data: 0.25 [ms]
[OGL LOG][Proc: 0]p: regenerate_distributed_matrix: 27.36 [ms]
[OGL LOG][Proc: 0]p_matrix: call_update: 27.688 [ms]
[OGL LOG][Proc: 0]p_rhs: call_update: 0.723 [ms]
[OGL LOG][Proc: 0]p: init_precond: 0.046 [ms]
[OGL LOG][StoppingCriterion.H:239] Creating stopping criterion with minIter 1377 frequency 15
[OGL LOG][Proc: 0]p: generate_solver: 0.019 [ms]
[OGL LOG][Proc: 0]p: solve: 1563.88 [ms]
[OGL LOG][Proc: 0]p: copy_x_back: 0.565 [ms]
[OGL LOG][lduLduBase.H:330] 
Statistics:
	Time per iteration: 681 [mu s]
	Time per residual norm calculation: 140.000000 [mu s]
	Time per iteration and DOF: 0.025222 [ns]
	Retrieve results bandwidth 4.778000 [GByte/s]
[OGL LOG][Proc: 0]p: solve_multi_gpu: 1594.45 [ms]
nonedpcppGKOCG:  Solving for p, Initial residual = 0.894567, Final residual = 9.37039e-05, No Iterations 2296
[INFO] SolveP: 1600.65 [ms]
time step continuity errors : sum local = 1.23742e-08, global = 2.90672e-23, cumulative = 2.3115e-20
[INFO] ContinuityError: 5.096 [ms]
[INFO] CorrectBoundary: 0.206 [ms]
[INFO] PISOStep: 1664.42 [ms]
[INFO] MatrixAssemblyPI: 30.235 [ms]
[INFO] AdjustPhi: 5.825 [ms]
[INFO] ConstrainPressure: 0.001 [ms]
[INFO] MatrixAssemblyPII: 9.342 [ms]
[OGL LOG][Proc: 0]: global_index_init: 0.077 [ms]
[OGL LOG][Proc: 0]p_local_coeffs: call_update: 0 [ms]
[OGL LOG][Proc: 0]p_non_local_coeffs: call_update: 0 [ms]
[OGL LOG][Proc: 0]p: update_local_matrix_data: 4.309 [ms]
[OGL LOG][Proc: 0]p: update_non_local_matrix_data: 0.261 [ms]
[OGL LOG][Proc: 0]p: regenerate_distributed_matrix: 28.121 [ms]
[OGL LOG][Proc: 0]p_matrix: call_update: 28.477 [ms]
[OGL LOG][Proc: 0]p_rhs: call_update: 0.535 [ms]
[OGL LOG][Proc: 0]p: init_precond: 0.046 [ms]
[OGL LOG][StoppingCriterion.H:239] Creating stopping criterion with minIter 1377 frequency 15
[OGL LOG][Proc: 0]p: generate_solver: 0.018 [ms]
[OGL LOG][Proc: 0]p: solve: 1565.02 [ms]
[OGL LOG][Proc: 0]p: copy_x_back: 0.535 [ms]
[OGL LOG][lduLduBase.H:330] 
Statistics:
	Time per iteration: 681 [mu s]
	Time per residual norm calculation: 145.000000 [mu s]
	Time per iteration and DOF: 0.025222 [ns]
	Retrieve results bandwidth 5.046000 [GByte/s]
[OGL LOG][Proc: 0]p: solve_multi_gpu: 1595.92 [ms]
nonedpcppGKOCG:  Solving for p, Initial residual = 0.821068, Final residual = 8.73062e-05, No Iterations 2296
[INFO] SolveP: 1601.94 [ms]
time step continuity errors : sum local = 1.16262e-08, global = 8.36041e-22, cumulative = 2.39511e-20
[INFO] ContinuityError: 5.659 [ms]
[INFO] CorrectBoundary: 0.143 [ms]
[INFO] PISOStep: 1666.56 [ms]
[INFO] TimeStep: 3663.66 [ms]
ExecutionTime = 64.22 s  ClockTime = 68 s

Time = 0.002822

Courant Number mean: 0.0472115 max: 0.551897
[INFO] MatrixAssemblyU: 27.626 [ms]
DILUPBiCGStab:  Solving for Ux, Initial residual = 0.0151988, Final residual = 0.00132858, No Iterations 5
DILUPBiCGStab:  Solving for Uy, Initial residual = 0.058962, Final residual = 0.00416358, No Iterations 5
DILUPBiCGStab:  Solving for Uz, Initial residual = 0.491966, Final residual = 0.0170386, No Iterations 5
[INFO] MomentumPredictor: 304.196 [ms]
[INFO] MatrixAssemblyPI: 32.19 [ms]
[INFO] AdjustPhi: 3.595 [ms]
[INFO] ConstrainPressure: 0.001 [ms]
[INFO] MatrixAssemblyPII: 9.323 [ms]
[OGL LOG][Proc: 0]: global_index_init: 0.095 [ms]
[OGL LOG][Proc: 0]p_local_coeffs: call_update: 0 [ms]
[OGL LOG][Proc: 0]p_non_local_coeffs: call_update: 0 [ms]
[OGL LOG][Proc: 0]p: update_local_matrix_data: 4.726 [ms]
[OGL LOG][Proc: 0]p: update_non_local_matrix_data: 0.24 [ms]
[OGL LOG][Proc: 0]p: regenerate_distributed_matrix: 28.903 [ms]
[OGL LOG][Proc: 0]p_matrix: call_update: 29.236 [ms]
[OGL LOG][Proc: 0]p_rhs: call_update: 0.707 [ms]
[OGL LOG][Proc: 0]p: init_precond: 0.066 [ms]
[OGL LOG][StoppingCriterion.H:239] Creating stopping criterion with minIter 1377 frequency 15
[OGL LOG][Proc: 0]p: generate_solver: 0.018 [ms]
[OGL LOG][Proc: 0]p: solve: 1557.69 [ms]
[OGL LOG][Proc: 0]p: copy_x_back: 0.545 [ms]
[OGL LOG][lduLduBase.H:330] 
Statistics:
	Time per iteration: 678 [mu s]
	Time per residual norm calculation: 140.000000 [mu s]
	Time per iteration and DOF: 0.025111 [ns]
	Retrieve results bandwidth 4.954000 [GByte/s]
[OGL LOG][Proc: 0]p: solve_multi_gpu: 1589.7 [ms]
nonedpcppGKOCG:  Solving for p, Initial residual = 0.908793, Final residual = 9.31942e-05, No Iterations 2296
[INFO] SolveP: 1596.12 [ms]
time step continuity errors : sum local = 1.23742e-08, global = 1.27601e-22, cumulative = 2.40787e-20
[INFO] ContinuityError: 6.106 [ms]
[INFO] CorrectBoundary: 1.264 [ms]
[INFO] PISOStep: 1660.87 [ms]
[INFO] MatrixAssemblyPI: 30.505 [ms]
[INFO] AdjustPhi: 6.642 [ms]
[INFO] ConstrainPressure: 0.002 [ms]
[INFO] MatrixAssemblyPII: 9.529 [ms]
[OGL LOG][Proc: 0]: global_index_init: 0.05 [ms]
[OGL LOG][Proc: 0]p_local_coeffs: call_update: 0 [ms]
[OGL LOG][Proc: 0]p_non_local_coeffs: call_update: 0 [ms]
[OGL LOG][Proc: 0]p: update_local_matrix_data: 4.138 [ms]
[OGL LOG][Proc: 0]p: update_non_local_matrix_data: 0.26 [ms]
[OGL LOG][Proc: 0]p: regenerate_distributed_matrix: 29.892 [ms]
[OGL LOG][Proc: 0]p_matrix: call_update: 30.235 [ms]
[OGL LOG][Proc: 0]p_rhs: call_update: 0.872 [ms]
[OGL LOG][Proc: 0]p: init_precond: 0.04 [ms]
[OGL LOG][StoppingCriterion.H:239] Creating stopping criterion with minIter 1377 frequency 15
[OGL LOG][Proc: 0]p: generate_solver: 0.018 [ms]
[OGL LOG][Proc: 0]p: solve: 1563.84 [ms]
[OGL LOG][Proc: 0]p: copy_x_back: 0.547 [ms]
[OGL LOG][lduLduBase.H:330] 
Statistics:
	Time per iteration: 681 [mu s]
	Time per residual norm calculation: 141.000000 [mu s]
	Time per iteration and DOF: 0.025222 [ns]
	Retrieve results bandwidth 4.936000 [GByte/s]
[OGL LOG][Proc: 0]p: solve_multi_gpu: 1597.26 [ms]
nonedpcppGKOCG:  Solving for p, Initial residual = 0.843708, Final residual = 8.79541e-05, No Iterations 2296
[INFO] SolveP: 1602.97 [ms]
time step continuity errors : sum local = 1.16257e-08, global = 3.02035e-22, cumulative = 2.43807e-20
[INFO] ContinuityError: 4.824 [ms]
[INFO] CorrectBoundary: 0.143 [ms]
[INFO] PISOStep: 1668.67 [ms]
[INFO] TimeStep: 3667.45 [ms]
ExecutionTime = 67.88 s  ClockTime = 72 s

Time = 0.002988

Courant Number mean: 0.0481785 max: 0.496492
[INFO] MatrixAssemblyU: 28.045 [ms]
DILUPBiCGStab:  Solving for Ux, Initial residual = 0.0152831, Final residual = 0.00133649, No Iterations 5
DILUPBiCGStab:  Solving for Uy, Initial residual = 0.0558149, Final residual = 0.00374149, No Iterations 5
DILUPBiCGStab:  Solving for Uz, Initial residual = 0.487584, Final residual = 0.0168169, No Iterations 5
[INFO] MomentumPredictor: 296.283 [ms]
[INFO] MatrixAssemblyPI: 31.058 [ms]
[INFO] AdjustPhi: 5.936 [ms]
[INFO] ConstrainPressure: 0.001 [ms]
[INFO] MatrixAssemblyPII: 9.348 [ms]
[OGL LOG][Proc: 0]: global_index_init: 0.09 [ms]
[OGL LOG][Proc: 0]p_local_coeffs: call_update: 0 [ms]
[OGL LOG][Proc: 0]p_non_local_coeffs: call_update: 0 [ms]
[OGL LOG][Proc: 0]p: update_local_matrix_data: 4.399 [ms]
[OGL LOG][Proc: 0]p: update_non_local_matrix_data: 0.267 [ms]
[OGL LOG][Proc: 0]p: regenerate_distributed_matrix: 26.664 [ms]
[OGL LOG][Proc: 0]p_matrix: call_update: 26.986 [ms]
[OGL LOG][Proc: 0]p_rhs: call_update: 0.796 [ms]
[OGL LOG][Proc: 0]p: init_precond: 0.044 [ms]
[OGL LOG][StoppingCriterion.H:239] Creating stopping criterion with minIter 1377 frequency 15
[OGL LOG][Proc: 0]p: generate_solver: 0.019 [ms]
[OGL LOG][Proc: 0]p: solve: 1548.68 [ms]
[OGL LOG][Proc: 0]p: copy_x_back: 0.554 [ms]
[OGL LOG][lduLduBase.H:330] 
Statistics:
	Time per iteration: 674 [mu s]
	Time per residual norm calculation: 140.000000 [mu s]
	Time per iteration and DOF: 0.024963 [ns]
	Retrieve results bandwidth 4.873000 [GByte/s]
[OGL LOG][Proc: 0]p: solve_multi_gpu: 1578.37 [ms]
nonedpcppGKOCG:  Solving for p, Initial residual = 0.898906, Final residual = 9.43362e-05, No Iterations 2296
[INFO] SolveP: 1584.42 [ms]
time step continuity errors : sum local = 1.30439e-08, global = 6.84427e-22, cumulative = 2.50651e-20
[INFO] ContinuityError: 5.362 [ms]
[INFO] CorrectBoundary: 0.224 [ms]
[INFO] PISOStep: 1648.52 [ms]
[INFO] MatrixAssemblyPI: 29.954 [ms]
[INFO] AdjustPhi: 6.968 [ms]
[INFO] ConstrainPressure: 0.001 [ms]
[INFO] MatrixAssemblyPII: 9.479 [ms]
[OGL LOG][Proc: 0]: global_index_init: 0.073 [ms]
[OGL LOG][Proc: 0]p_local_coeffs: call_update: 0 [ms]
[OGL LOG][Proc: 0]p_non_local_coeffs: call_update: 0 [ms]
[OGL LOG][Proc: 0]p: update_local_matrix_data: 4.229 [ms]
[OGL LOG][Proc: 0]p: update_non_local_matrix_data: 0.247 [ms]
[OGL LOG][Proc: 0]p: regenerate_distributed_matrix: 28.249 [ms]
[OGL LOG][Proc: 0]p_matrix: call_update: 28.574 [ms]
[OGL LOG][Proc: 0]p_rhs: call_update: 0.774 [ms]
[OGL LOG][Proc: 0]p: init_precond: 0.045 [ms]
[OGL LOG][StoppingCriterion.H:239] Creating stopping criterion with minIter 1377 frequency 15
[OGL LOG][Proc: 0]p: generate_solver: 0.019 [ms]
[OGL LOG][Proc: 0]p: solve: 1571.28 [ms]
[OGL LOG][Proc: 0]p: copy_x_back: 0.573 [ms]
[OGL LOG][lduLduBase.H:330] 
Statistics:
	Time per iteration: 684 [mu s]
	Time per residual norm calculation: 140.000000 [mu s]
	Time per iteration and DOF: 0.025333 [ns]
	Retrieve results bandwidth 4.712000 [GByte/s]
[OGL LOG][Proc: 0]p: solve_multi_gpu: 1602.61 [ms]
nonedpcppGKOCG:  Solving for p, Initial residual = 0.824054, Final residual = 8.79684e-05, No Iterations 2296
[INFO] SolveP: 1608.44 [ms]
time step continuity errors : sum local = 1.2252e-08, global = 1.39343e-21, cumulative = 2.64586e-20
[INFO] ContinuityError: 4.656 [ms]
[INFO] CorrectBoundary: 0.137 [ms]
[INFO] PISOStep: 1673.33 [ms]
[INFO] TimeStep: 3651.41 [ms]
ExecutionTime = 71.54 s  ClockTime = 76 s

Time = 0.003154

Courant Number mean: 0.0491749 max: 0.563409
[INFO] MatrixAssemblyU: 27.991 [ms]
DILUPBiCGStab:  Solving for Ux, Initial residual = 0.0148912, Final residual = 0.0012384, No Iterations 5
DILUPBiCGStab:  Solving for Uy, Initial residual = 0.057287, Final residual = 0.00382828, No Iterations 5
DILUPBiCGStab:  Solving for Uz, Initial residual = 0.498569, Final residual = 0.0168379, No Iterations 5
[INFO] MomentumPredictor: 295.3 [ms]
[INFO] MatrixAssemblyPI: 33.92 [ms]
[INFO] AdjustPhi: 1.947 [ms]
[INFO] ConstrainPressure: 0.001 [ms]
[INFO] MatrixAssemblyPII: 9.891 [ms]
[OGL LOG][Proc: 0]: global_index_init: 0.085 [ms]
[OGL LOG][Proc: 0]p_local_coeffs: call_update: 0 [ms]
[OGL LOG][Proc: 0]p_non_local_coeffs: call_update: 0 [ms]
[OGL LOG][Proc: 0]p: update_local_matrix_data: 4.778 [ms]
[OGL LOG][Proc: 0]p: update_non_local_matrix_data: 0.247 [ms]
[OGL LOG][Proc: 0]p: regenerate_distributed_matrix: 27.667 [ms]
[OGL LOG][Proc: 0]p_matrix: call_update: 27.994 [ms]
[OGL LOG][Proc: 0]p_rhs: call_update: 0.314 [ms]
[OGL LOG][Proc: 0]p: init_precond: 0.045 [ms]
[OGL LOG][StoppingCriterion.H:239] Creating stopping criterion with minIter 1377 frequency 15
[OGL LOG][Proc: 0]p: generate_solver: 0.019 [ms]
[OGL LOG][Proc: 0]p: solve: 1561.48 [ms]
[OGL LOG][Proc: 0]p: copy_x_back: 0.559 [ms]
[OGL LOG][lduLduBase.H:330] 
Statistics:
	Time per iteration: 680 [mu s]
	Time per residual norm calculation: 140.000000 [mu s]
	Time per iteration and DOF: 0.025185 [ns]
	Retrieve results bandwidth 4.830000 [GByte/s]
[OGL LOG][Proc: 0]p: solve_multi_gpu: 1591.47 [ms]
nonedpcppGKOCG:  Solving for p, Initial residual = 0.911344, Final residual = 9.51475e-05, No Iterations 2296
[INFO] SolveP: 1597.86 [ms]
time step continuity errors : sum local = 1.32975e-08, global = 8.57312e-22, cumulative = 2.73159e-20
[INFO] ContinuityError: 4.851 [ms]
[INFO] CorrectBoundary: 0.138 [ms]
[INFO] PISOStep: 1661.47 [ms]
[INFO] MatrixAssemblyPI: 33.569 [ms]
[INFO] AdjustPhi: 2.265 [ms]
[INFO] ConstrainPressure: 0.001 [ms]
[INFO] MatrixAssemblyPII: 10.034 [ms]
[OGL LOG][Proc: 0]: global_index_init: 0.074 [ms]
[OGL LOG][Proc: 0]p_local_coeffs: call_update: 0 [ms]
[OGL LOG][Proc: 0]p_non_local_coeffs: call_update: 0 [ms]
[OGL LOG][Proc: 0]p: update_local_matrix_data: 4.357 [ms]
[OGL LOG][Proc: 0]p: update_non_local_matrix_data: 0.241 [ms]
[OGL LOG][Proc: 0]p: regenerate_distributed_matrix: 28.138 [ms]
[OGL LOG][Proc: 0]p_matrix: call_update: 28.484 [ms]
[OGL LOG][Proc: 0]p_rhs: call_update: 0.886 [ms]
[OGL LOG][Proc: 0]p: init_precond: 0.041 [ms]
[OGL LOG][StoppingCriterion.H:239] Creating stopping criterion with minIter 1377 frequency 15
[OGL LOG][Proc: 0]p: generate_solver: 0.019 [ms]
[OGL LOG][Proc: 0]p: solve: 1561.7 [ms]
[OGL LOG][Proc: 0]p: copy_x_back: 0.557 [ms]
[OGL LOG][lduLduBase.H:330] 
Statistics:
	Time per iteration: 680 [mu s]
	Time per residual norm calculation: 162.000000 [mu s]
	Time per iteration and DOF: 0.025185 [ns]
	Retrieve results bandwidth 4.847000 [GByte/s]
[OGL LOG][Proc: 0]p: solve_multi_gpu: 1593.3 [ms]
nonedpcppGKOCG:  Solving for p, Initial residual = 0.843378, Final residual = 8.95832e-05, No Iterations 2296
[INFO] SolveP: 1599.58 [ms]
time step continuity errors : sum local = 1.24767e-08, global = 6.53182e-22, cumulative = 2.79691e-20
[INFO] ContinuityError: 5.038 [ms]
[INFO] CorrectBoundary: 0.29 [ms]
[INFO] PISOStep: 1663.32 [ms]
[INFO] TimeStep: 3652.77 [ms]
ExecutionTime = 75.19 s  ClockTime = 79 s

Time = 0.00332

Courant Number mean: 0.0500502 max: 0.500103
[INFO] MatrixAssemblyU: 26.775 [ms]
DILUPBiCGStab:  Solving for Ux, Initial residual = 0.015069, Final residual = 0.00125137, No Iterations 5
DILUPBiCGStab:  Solving for Uy, Initial residual = 0.0548893, Final residual = 0.00347135, No Iterations 5
DILUPBiCGStab:  Solving for Uz, Initial residual = 0.496013, Final residual = 0.0166762, No Iterations 5
[INFO] MomentumPredictor: 300.248 [ms]
[INFO] MatrixAssemblyPI: 30.811 [ms]
[INFO] AdjustPhi: 5.583 [ms]
[INFO] ConstrainPressure: 0.001 [ms]
[INFO] MatrixAssemblyPII: 9.067 [ms]
[OGL LOG][Proc: 0]: global_index_init: 0.093 [ms]
[OGL LOG][Proc: 0]p_local_coeffs: call_update: 0 [ms]
[OGL LOG][Proc: 0]p_non_local_coeffs: call_update: 0 [ms]
[OGL LOG][Proc: 0]p: update_local_matrix_data: 4.591 [ms]
[OGL LOG][Proc: 0]p: update_non_local_matrix_data: 0.25 [ms]
[OGL LOG][Proc: 0]p: regenerate_distributed_matrix: 27.516 [ms]
[OGL LOG][Proc: 0]p_matrix: call_update: 27.851 [ms]
[OGL LOG][Proc: 0]p_rhs: call_update: 1.083 [ms]
[OGL LOG][Proc: 0]p: init_precond: 0.046 [ms]
[OGL LOG][StoppingCriterion.H:239] Creating stopping criterion with minIter 1377 frequency 15
[OGL LOG][Proc: 0]p: generate_solver: 0.018 [ms]
[OGL LOG][Proc: 0]p: solve: 1556.43 [ms]
[OGL LOG][Proc: 0]p: copy_x_back: 0.544 [ms]
[OGL LOG][lduLduBase.H:330] 
Statistics:
	Time per iteration: 677 [mu s]
	Time per residual norm calculation: 166.000000 [mu s]
	Time per iteration and DOF: 0.025074 [ns]
	Retrieve results bandwidth 4.963000 [GByte/s]
[OGL LOG][Proc: 0]p: solve_multi_gpu: 1587.14 [ms]
nonedpcppGKOCG:  Solving for p, Initial residual = 0.904159, Final residual = 9.41581e-05, No Iterations 2296
[INFO] SolveP: 1593.65 [ms]
time step continuity errors : sum local = 1.36858e-08, global = 5.08981e-22, cumulative = 2.84781e-20
[INFO] ContinuityError: 4.959 [ms]
[INFO] CorrectBoundary: 0.172 [ms]
[INFO] PISOStep: 1656.62 [ms]
[INFO] MatrixAssemblyPI: 31.08 [ms]
[INFO] AdjustPhi: 5.35 [ms]
[INFO] ConstrainPressure: 0.001 [ms]
[INFO] MatrixAssemblyPII: 9.397 [ms]
[OGL LOG][Proc: 0]: global_index_init: 0.076 [ms]
[OGL LOG][Proc: 0]p_local_coeffs: call_update: 0 [ms]
[OGL LOG][Proc: 0]p_non_local_coeffs: call_update: 0 [ms]
[OGL LOG][Proc: 0]p: update_local_matrix_data: 4.201 [ms]
[OGL LOG][Proc: 0]p: update_non_local_matrix_data: 0.25 [ms]
[OGL LOG][Proc: 0]p: regenerate_distributed_matrix: 27.912 [ms]
[OGL LOG][Proc: 0]p_matrix: call_update: 28.248 [ms]
[OGL LOG][Proc: 0]p_rhs: call_update: 0.967 [ms]
[OGL LOG][Proc: 0]p: init_precond: 0.043 [ms]
[OGL LOG][StoppingCriterion.H:239] Creating stopping criterion with minIter 1377 frequency 15
[OGL LOG][Proc: 0]p: generate_solver: 0.014 [ms]
[OGL LOG][Proc: 0]p: solve: 1570.29 [ms]
[OGL LOG][Proc: 0]p: copy_x_back: 0.55 [ms]
[OGL LOG][lduLduBase.H:330] 
Statistics:
	Time per iteration: 683 [mu s]
	Time per residual norm calculation: 141.000000 [mu s]
	Time per iteration and DOF: 0.025296 [ns]
	Retrieve results bandwidth 4.909000 [GByte/s]
[OGL LOG][Proc: 0]p: solve_multi_gpu: 1601.86 [ms]
nonedpcppGKOCG:  Solving for p, Initial residual = 0.828265, Final residual = 8.84103e-05, No Iterations 2296
[INFO] SolveP: 1608.05 [ms]
time step continuity errors : sum local = 1.29318e-08, global = 3.21314e-22, cumulative = 2.87994e-20
[INFO] ContinuityError: 7.44 [ms]
[INFO] CorrectBoundary: 1.716 [ms]
[INFO] PISOStep: 1674.94 [ms]
[INFO] TimeStep: 3663.55 [ms]
ExecutionTime = 78.85 s  ClockTime = 83 s

End

Finalising parallel run
