/*---------------------------------------------------------------------------*\
| =========                 |                                                 |
| \\      /  F ield         | OpenFOAM: The Open Source CFD Toolbox           |
|  \\    /   O peration     | Version:  2306                                  |
|   \\  /    A nd           | Website:  www.openfoam.com                      |
|    \\/     M anipulation  |                                                 |
\*---------------------------------------------------------------------------*/
Build  : a6e826bd55-20230630 OPENFOAM=2306 version=v2306
Arch   : "LSB;label=32;scalar=64"
Exec   : icoFoam -parallel -case /tmp/lidDrivenCavity/workspace/d82a9af45b818c70930601b7e3149452/case
Date   : Jan 10 2024
Time   : 03:55:02
Host   : nla-gpu2.ianm.kit.edu
PID    : 407645
I/O    : uncollated
Case   : /tmp/lidDrivenCavity/workspace/d82a9af45b818c70930601b7e3149452/case
nProcs : 8
Hosts  :
(
    (nla-gpu2.ianm.kit.edu 8)
)
Pstream initialized with:
    floatTransfer      : false
    nProcsSimpleSum    : 0
    nonBlockingExchange: 0 (tuning: 0)
    exchange algorithm : -1
    commsType          : nonBlocking
    polling iterations : 0
trapFpe: Floating point exception trapping enabled (FOAM_SIGFPE).
fileModificationChecking : Monitoring run-time modified files using timeStampMaster (fileModificationSkew 5, maxFileModificationPolls 20)
allowSystemOperations : Allowing user-supplied system call operations

// * * * * * * * * * * * * * * * * * * * * * * * * * * * * * * * * * * * * * //
Create time

--> FOAM Warning : 
    From void* Foam::dlLibraryTable::openLibrary(const Foam::fileName&, bool)
    in file db/dynamicLibrary/dlLibraryTable/dlLibraryTable.C at line 188
    Could not load "libpetscFoam.so"
libpetscFoam.so: cannot open shared object file: No such file or directory
Create mesh for time = 0


PISO: Operating solver in PISO mode

Reading transportProperties

Reading field p

Reading field U

Reading/calculating face flux field phi


Starting time loop

Time = 0.000125

Courant Number mean: 8.02505e-18 max: 4.85723e-14
[INFO] MatrixAssemblyU: 815.896 [ms]
DILUPBiCGStab:  Solving for Ux, Initial residual = 1, Final residual = 0.0211815, No Iterations 5
DILUPBiCGStab:  Solving for Uy:  solution singularity
DILUPBiCGStab:  Solving for Uz:  solution singularity
[INFO] MomentumPredictor: 3704.51 [ms]
[INFO] MatrixAssemblyPI: 823.752 [ms]
[INFO] AdjustPhi: 45.053 [ms]
[INFO] ConstrainPressure: 0.013 [ms]
[INFO] MatrixAssemblyPII: 231.223 [ms]
nonePCG:  Solving for p, Initial residual = 1, Final residual = 9.8936e-05, No Iterations 3251
[INFO] SolveP: 349236 [ms]
time step continuity errors : sum local = 2.51561e-09, global = -2.75362e-21, cumulative = -2.75362e-21
[INFO] ContinuityError: 119.178 [ms]
[INFO] CorrectBoundary: 2.17 [ms]
[INFO] PISOStep: 350716 [ms]
[INFO] MatrixAssemblyPI: 795.218 [ms]
[INFO] AdjustPhi: 43.261 [ms]
[INFO] ConstrainPressure: 0.005 [ms]
[INFO] MatrixAssemblyPII: 232.81 [ms]
nonePCG:  Solving for p, Initial residual = 0.822352, Final residual = 9.85948e-05, No Iterations 3236
[INFO] SolveP: 346137 [ms]
time step continuity errors : sum local = 3.01927e-09, global = 4.52595e-22, cumulative = -2.30102e-21
[INFO] ContinuityError: 112.859 [ms]
[INFO] CorrectBoundary: 1.978 [ms]
[INFO] PISOStep: 347581 [ms]
[INFO] TimeStep: 702937 [ms]
ExecutionTime = 703.76 s  ClockTime = 707 s

Time = 0.00025

Courant Number mean: 0.0108822 max: 0.437683
[INFO] MatrixAssemblyU: 614.667 [ms]
DILUPBiCGStab:  Solving for Ux, Initial residual = 0.108151, Final residual = 0.0127621, No Iterations 5
DILUPBiCGStab:  Solving for Uy, Initial residual = 0.484293, Final residual = 0.0502291, No Iterations 5
DILUPBiCGStab:  Solving for Uz, Initial residual = 0.996435, Final residual = 0.114507, No Iterations 5
[INFO] MomentumPredictor: 7030.23 [ms]
[INFO] MatrixAssemblyPI: 810.35 [ms]
[INFO] AdjustPhi: 50.101 [ms]
[INFO] ConstrainPressure: 0.003 [ms]
[INFO] MatrixAssemblyPII: 231.863 [ms]
nonePCG:  Solving for p, Initial residual = 0.905671, Final residual = 9.94138e-05, No Iterations 3187
[INFO] SolveP: 341533 [ms]
time step continuity errors : sum local = 6.94686e-09, global = 3.02192e-22, cumulative = -1.99883e-21
[INFO] ContinuityError: 119.527 [ms]
[INFO] CorrectBoundary: 2.343 [ms]
[INFO] PISOStep: 343003 [ms]
[INFO] MatrixAssemblyPI: 798.377 [ms]
[INFO] AdjustPhi: 48.438 [ms]
[INFO] ConstrainPressure: 0.004 [ms]
[INFO] MatrixAssemblyPII: 233.048 [ms]
nonePCG:  Solving for p, Initial residual = 0.856952, Final residual = 9.87967e-05, No Iterations 3182
[INFO] SolveP: 342052 [ms]
time step continuity errors : sum local = 7.03202e-09, global = 3.69354e-22, cumulative = -1.62948e-21
[INFO] ContinuityError: 113.025 [ms]
[INFO] CorrectBoundary: 1.32 [ms]
[INFO] PISOStep: 343504 [ms]
[INFO] TimeStep: 694256 [ms]
ExecutionTime = 1394.6 s  ClockTime = 1402 s

Time = 0.000375

Courant Number mean: 0.016989 max: 0.511334
[INFO] MatrixAssemblyU: 616.505 [ms]
DILUPBiCGStab:  Solving for Ux, Initial residual = 0.0537302, Final residual = 0.00524958, No Iterations 5
DILUPBiCGStab:  Solving for Uy, Initial residual = 0.261853, Final residual = 0.0256294, No Iterations 5
DILUPBiCGStab:  Solving for Uz, Initial residual = 0.87548, Final residual = 0.0870197, No Iterations 5
[INFO] MomentumPredictor: 7026.62 [ms]
[INFO] MatrixAssemblyPI: 806.342 [ms]
[INFO] AdjustPhi: 42.148 [ms]
[INFO] ConstrainPressure: 0.005 [ms]
[INFO] MatrixAssemblyPII: 231.668 [ms]
nonePCG:  Solving for p, Initial residual = 0.940504, Final residual = 9.83179e-05, No Iterations 1538
[INFO] SolveP: 166488 [ms]
time step continuity errors : sum local = 8.89514e-09, global = 6.20205e-22, cumulative = -1.00927e-21
[INFO] ContinuityError: 112.439 [ms]
[INFO] CorrectBoundary: 1.812 [ms]
[INFO] PISOStep: 167939 [ms]
[INFO] MatrixAssemblyPI: 790 [ms]
[INFO] AdjustPhi: 53.138 [ms]
[INFO] ConstrainPressure: 0.004 [ms]
[INFO] MatrixAssemblyPII: 232.023 [ms]
nonePCG:  Solving for p, Initial residual = 0.90876, Final residual = 9.95114e-05, No Iterations 1534
[INFO] SolveP: 164698 [ms]
time step continuity errors : sum local = 8.77177e-09, global = 1.04905e-22, cumulative = -9.04369e-22
[INFO] ContinuityError: 112.287 [ms]
[INFO] CorrectBoundary: 1.438 [ms]
[INFO] PISOStep: 166146 [ms]
[INFO] TimeStep: 341838 [ms]
ExecutionTime = 1734.72 s  ClockTime = 1744 s

Time = 0.0005

Courant Number mean: 0.0206053 max: 0.477586
[INFO] MatrixAssemblyU: 616.852 [ms]
DILUPBiCGStab:  Solving for Ux, Initial residual = 0.0416106, Final residual = 0.004863, No Iterations 5
DILUPBiCGStab:  Solving for Uy, Initial residual = 0.214079, Final residual = 0.0232205, No Iterations 5
DILUPBiCGStab:  Solving for Uz, Initial residual = 0.781458, Final residual = 0.0641282, No Iterations 5
[INFO] MomentumPredictor: 7031.47 [ms]
[INFO] MatrixAssemblyPI: 806.82 [ms]
[INFO] AdjustPhi: 45.787 [ms]
[INFO] ConstrainPressure: 0.005 [ms]
[INFO] MatrixAssemblyPII: 231.09 [ms]
nonePCG:  Solving for p, Initial residual = 0.936934, Final residual = 9.68677e-05, No Iterations 1534
[INFO] SolveP: 166047 [ms]
time step continuity errors : sum local = 1.08878e-08, global = -3.37076e-23, cumulative = -9.38077e-22
[INFO] ContinuityError: 112.995 [ms]
[INFO] CorrectBoundary: 3.811 [ms]
[INFO] PISOStep: 167505 [ms]
[INFO] MatrixAssemblyPI: 794.513 [ms]
[INFO] AdjustPhi: 46.474 [ms]
[INFO] ConstrainPressure: 0.004 [ms]
[INFO] MatrixAssemblyPII: 232.501 [ms]
nonePCG:  Solving for p, Initial residual = 0.879627, Final residual = 9.99629e-05, No Iterations 1512
[INFO] SolveP: 163157 [ms]
time step continuity errors : sum local = 1.10774e-08, global = -3.69937e-22, cumulative = -1.30801e-21
[INFO] ContinuityError: 112.248 [ms]
[INFO] CorrectBoundary: 2.497 [ms]
[INFO] PISOStep: 164603 [ms]
[INFO] TimeStep: 339867 [ms]
ExecutionTime = 2072.88 s  ClockTime = 2083 s

Time = 0.000625

Courant Number mean: 0.0236937 max: 0.555601
[INFO] MatrixAssemblyU: 617.244 [ms]
DILUPBiCGStab:  Solving for Ux, Initial residual = 0.037614, Final residual = 0.00440389, No Iterations 5
DILUPBiCGStab:  Solving for Uy, Initial residual = 0.184691, Final residual = 0.0189843, No Iterations 5
DILUPBiCGStab:  Solving for Uz, Initial residual = 0.752131, Final residual = 0.0549275, No Iterations 5
[INFO] MomentumPredictor: 7043.55 [ms]
[INFO] MatrixAssemblyPI: 807.408 [ms]
[INFO] AdjustPhi: 43.172 [ms]
[INFO] ConstrainPressure: 0.004 [ms]
[INFO] MatrixAssemblyPII: 231.845 [ms]
nonePCG:  Solving for p, Initial residual = 0.953552, Final residual = 9.99689e-05, No Iterations 2908
[INFO] SolveP: 315080 [ms]
time step continuity errors : sum local = 1.23525e-08, global = -4.40629e-22, cumulative = -1.74864e-21
[INFO] ContinuityError: 113.181 [ms]
[INFO] CorrectBoundary: 1.755 [ms]
[INFO] PISOStep: 316536 [ms]
[INFO] MatrixAssemblyPI: 789.378 [ms]
[INFO] AdjustPhi: 49.249 [ms]
[INFO] ConstrainPressure: 0.005 [ms]
[INFO] MatrixAssemblyPII: 232.915 [ms]
nonePCG:  Solving for p, Initial residual = 0.915155, Final residual = 9.94275e-05, No Iterations 2887
[INFO] SolveP: 310138 [ms]
time step continuity errors : sum local = 1.22121e-08, global = 5.30972e-22, cumulative = -1.21767e-21
[INFO] ContinuityError: 112.65 [ms]
[INFO] CorrectBoundary: 3.365 [ms]
[INFO] PISOStep: 311582 [ms]
[INFO] TimeStep: 635883 [ms]
ExecutionTime = 2705.55 s  ClockTime = 2719 s

Time = 0.00075

Courant Number mean: 0.0260431 max: 0.483405
[INFO] MatrixAssemblyU: 617.764 [ms]
DILUPBiCGStab:  Solving for Ux, Initial residual = 0.0354403, Final residual = 0.00412775, No Iterations 5
DILUPBiCGStab:  Solving for Uy, Initial residual = 0.171449, Final residual = 0.0161235, No Iterations 5
DILUPBiCGStab:  Solving for Uz, Initial residual = 0.700709, Final residual = 0.0471623, No Iterations 5
[INFO] MomentumPredictor: 7045.41 [ms]
[INFO] MatrixAssemblyPI: 806.009 [ms]
[INFO] AdjustPhi: 46.224 [ms]
[INFO] ConstrainPressure: 0.004 [ms]
[INFO] MatrixAssemblyPII: 232.651 [ms]
nonePCG:  Solving for p, Initial residual = 0.950372, Final residual = 9.99916e-05, No Iterations 3091
[INFO] SolveP: 334188 [ms]
time step continuity errors : sum local = 1.42446e-08, global = 7.97421e-22, cumulative = -4.20249e-22
[INFO] ContinuityError: 113.775 [ms]
[INFO] CorrectBoundary: 1.493 [ms]
[INFO] PISOStep: 335647 [ms]
[INFO] MatrixAssemblyPI: 792.367 [ms]
[INFO] AdjustPhi: 47.634 [ms]
[INFO] ConstrainPressure: 0.005 [ms]
[INFO] MatrixAssemblyPII: 231.528 [ms]
nonePCG:  Solving for p, Initial residual = 0.890733, Final residual = 9.81083e-05, No Iterations 3088
[INFO] SolveP: 335636 [ms]
time step continuity errors : sum local = 1.41988e-08, global = 7.17515e-23, cumulative = -3.48497e-22
[INFO] ContinuityError: 112.359 [ms]
[INFO] CorrectBoundary: 3.016 [ms]
[INFO] PISOStep: 337087 [ms]
[INFO] TimeStep: 680507 [ms]
ExecutionTime = 3382.66 s  ClockTime = 3400 s

Time = 0.000875

Courant Number mean: 0.028264 max: 0.611474
[INFO] MatrixAssemblyU: 615.988 [ms]
DILUPBiCGStab:  Solving for Ux, Initial residual = 0.0350652, Final residual = 0.00388794, No Iterations 5
DILUPBiCGStab:  Solving for Uy, Initial residual = 0.176353, Final residual = 0.0153434, No Iterations 5
DILUPBiCGStab:  Solving for Uz, Initial residual = 0.690801, Final residual = 0.0405318, No Iterations 5
[INFO] MomentumPredictor: 7029.41 [ms]
[INFO] MatrixAssemblyPI: 805.756 [ms]
[INFO] AdjustPhi: 42.082 [ms]
[INFO] ConstrainPressure: 0.004 [ms]
[INFO] MatrixAssemblyPII: 231.457 [ms]
nonePCG:  Solving for p, Initial residual = 0.961384, Final residual = 9.9665e-05, No Iterations 1510
[INFO] SolveP: 163484 [ms]
time step continuity errors : sum local = 1.78048e-08, global = 1.79498e-22, cumulative = -1.68999e-22
[INFO] ContinuityError: 116.929 [ms]
[INFO] CorrectBoundary: 2.955 [ms]
[INFO] PISOStep: 164942 [ms]
[INFO] MatrixAssemblyPI: 788.482 [ms]
[INFO] AdjustPhi: 46.529 [ms]
[INFO] ConstrainPressure: 0.004 [ms]
[INFO] MatrixAssemblyPII: 232.098 [ms]
nonePCG:  Solving for p, Initial residual = 0.917527, Final residual = 9.93305e-05, No Iterations 1488
[INFO] SolveP: 161217 [ms]
time step continuity errors : sum local = 1.65373e-08, global = 4.39285e-22, cumulative = 2.70286e-22
[INFO] ContinuityError: 118.513 [ms]
[INFO] CorrectBoundary: 2.115 [ms]
[INFO] PISOStep: 162665 [ms]
[INFO] TimeStep: 335363 [ms]
ExecutionTime = 3716.35 s  ClockTime = 3735 s

Time = 0.001

Courant Number mean: 0.0300285 max: 0.490999
[INFO] MatrixAssemblyU: 616.908 [ms]
DILUPBiCGStab:  Solving for Ux, Initial residual = 0.0361302, Final residual = 0.00371952, No Iterations 5
DILUPBiCGStab:  Solving for Uy, Initial residual = 0.170611, Final residual = 0.0133734, No Iterations 5
DILUPBiCGStab:  Solving for Uz, Initial residual = 0.683732, Final residual = 0.0407094, No Iterations 5
[INFO] MomentumPredictor: 7012.45 [ms]
[INFO] MatrixAssemblyPI: 804.789 [ms]
[INFO] AdjustPhi: 44.214 [ms]
[INFO] ConstrainPressure: 0.004 [ms]
[INFO] MatrixAssemblyPII: 231.584 [ms]
nonePCG:  Solving for p, Initial residual = 0.959296, Final residual = 9.89052e-05, No Iterations 3076
[INFO] SolveP: 333169 [ms]
time step continuity errors : sum local = 1.83653e-08, global = 7.03621e-22, cumulative = 9.73906e-22
[INFO] ContinuityError: 112.883 [ms]
[INFO] CorrectBoundary: 2.288 [ms]
[INFO] PISOStep: 334621 [ms]
[INFO] MatrixAssemblyPI: 787.804 [ms]
[INFO] AdjustPhi: 48.585 [ms]
[INFO] ConstrainPressure: 0.003 [ms]
[INFO] MatrixAssemblyPII: 231.191 [ms]
nonePCG:  Solving for p, Initial residual = 0.897608, Final residual = 9.91704e-05, No Iterations 3072
[INFO] SolveP: 332568 [ms]
time step continuity errors : sum local = 1.86906e-08, global = 1.24999e-21, cumulative = 2.2239e-21
[INFO] ContinuityError: 119.312 [ms]
[INFO] CorrectBoundary: 2.775 [ms]
[INFO] PISOStep: 334015 [ms]
[INFO] TimeStep: 676376 [ms]
ExecutionTime = 4389.49 s  ClockTime = 4412 s

Time = 0.001125

Courant Number mean: 0.0318575 max: 0.695097
[INFO] MatrixAssemblyU: 616.015 [ms]
DILUPBiCGStab:  Solving for Ux, Initial residual = 0.0375848, Final residual = 0.00355565, No Iterations 5
DILUPBiCGStab:  Solving for Uy, Initial residual = 0.187421, Final residual = 0.0136919, No Iterations 5
DILUPBiCGStab:  Solving for Uz, Initial residual = 0.691794, Final residual = 0.0363786, No Iterations 5
[INFO] MomentumPredictor: 7035.13 [ms]
[INFO] MatrixAssemblyPI: 803.662 [ms]
[INFO] AdjustPhi: 45.081 [ms]
[INFO] ConstrainPressure: 0.004 [ms]
[INFO] MatrixAssemblyPII: 231.567 [ms]
nonePCG:  Solving for p, Initial residual = 0.96738, Final residual = 9.62179e-05, No Iterations 3072
[INFO] SolveP: 332220 [ms]
time step continuity errors : sum local = 2.05274e-08, global = 1.18035e-22, cumulative = 2.34193e-21
[INFO] ContinuityError: 118.587 [ms]
[INFO] CorrectBoundary: 2.762 [ms]
[INFO] PISOStep: 333678 [ms]
[INFO] MatrixAssemblyPI: 788.985 [ms]
[INFO] AdjustPhi: 50.195 [ms]
[INFO] ConstrainPressure: 0.004 [ms]
[INFO] MatrixAssemblyPII: 230.312 [ms]
nonePCG:  Solving for p, Initial residual = 0.918573, Final residual = 9.85468e-05, No Iterations 3069
[INFO] SolveP: 331325 [ms]
time step continuity errors : sum local = 2.09989e-08, global = 4.8686e-22, cumulative = 2.82879e-21
[INFO] ContinuityError: 119.145 [ms]
[INFO] CorrectBoundary: 4.252 [ms]
[INFO] PISOStep: 332780 [ms]
[INFO] TimeStep: 674219 [ms]
ExecutionTime = 5060.42 s  ClockTime = 5086 s

Time = 0.00125

Courant Number mean: 0.0332841 max: 0.507061
[INFO] MatrixAssemblyU: 613.929 [ms]
DILUPBiCGStab:  Solving for Ux, Initial residual = 0.0409903, Final residual = 0.00360933, No Iterations 5
DILUPBiCGStab:  Solving for Uy, Initial residual = 0.186291, Final residual = 0.0121124, No Iterations 5
DILUPBiCGStab:  Solving for Uz, Initial residual = 0.691451, Final residual = 0.0349359, No Iterations 5
[INFO] MomentumPredictor: 7031.61 [ms]
[INFO] MatrixAssemblyPI: 805.405 [ms]
[INFO] AdjustPhi: 44.168 [ms]
[INFO] ConstrainPressure: 0.004 [ms]
[INFO] MatrixAssemblyPII: 230.026 [ms]
nonePCG:  Solving for p, Initial residual = 0.966738, Final residual = 9.91685e-05, No Iterations 3072
[INFO] SolveP: 332489 [ms]
time step continuity errors : sum local = 2.46786e-08, global = 2.75981e-22, cumulative = 3.10478e-21
[INFO] ContinuityError: 126.722 [ms]
[INFO] CorrectBoundary: 2.195 [ms]
[INFO] PISOStep: 333954 [ms]
[INFO] MatrixAssemblyPI: 786.655 [ms]
[INFO] AdjustPhi: 53.205 [ms]
[INFO] ConstrainPressure: 0.004 [ms]
[INFO] MatrixAssemblyPII: 231.011 [ms]
nonePCG:  Solving for p, Initial residual = 0.903522, Final residual = 9.90816e-05, No Iterations 3069
[INFO] SolveP: 332389 [ms]
time step continuity errors : sum local = 2.4992e-08, global = 5.9345e-22, cumulative = 3.69823e-21
[INFO] ContinuityError: 112.703 [ms]
[INFO] CorrectBoundary: 2.495 [ms]
[INFO] PISOStep: 333838 [ms]
[INFO] TimeStep: 675547 [ms]
ExecutionTime = 5732.67 s  ClockTime = 5761 s

Time = 0.001375

Courant Number mean: 0.0349053 max: 0.825991
[INFO] MatrixAssemblyU: 614.425 [ms]
DILUPBiCGStab:  Solving for Ux, Initial residual = 0.0438231, Final residual = 0.00346188, No Iterations 5
DILUPBiCGStab:  Solving for Uy, Initial residual = 0.210346, Final residual = 0.0131312, No Iterations 5
DILUPBiCGStab:  Solving for Uz, Initial residual = 0.706479, Final residual = 0.0344328, No Iterations 5
[INFO] MomentumPredictor: 7033.33 [ms]
[INFO] MatrixAssemblyPI: 802.998 [ms]
[INFO] AdjustPhi: 45.497 [ms]
[INFO] ConstrainPressure: 0.004 [ms]
[INFO] MatrixAssemblyPII: 230.396 [ms]
nonePCG:  Solving for p, Initial residual = 0.972365, Final residual = 9.77529e-05, No Iterations 3072
[INFO] SolveP: 332106 [ms]
time step continuity errors : sum local = 2.82969e-08, global = 1.62106e-21, cumulative = 5.31929e-21
[INFO] ContinuityError: 120.773 [ms]
[INFO] CorrectBoundary: 2.929 [ms]
[INFO] PISOStep: 333571 [ms]
[INFO] MatrixAssemblyPI: 788.578 [ms]
[INFO] AdjustPhi: 45.604 [ms]
[INFO] ConstrainPressure: 0.004 [ms]
[INFO] MatrixAssemblyPII: 230.973 [ms]
nonePCG:  Solving for p, Initial residual = 0.919626, Final residual = 9.97746e-05, No Iterations 3068
[INFO] SolveP: 332090 [ms]
time step continuity errors : sum local = 2.89051e-08, global = 6.12566e-22, cumulative = 5.93185e-21
[INFO] ContinuityError: 119.56 [ms]
[INFO] CorrectBoundary: 3.65 [ms]
[INFO] PISOStep: 333540 [ms]
[INFO] TimeStep: 674870 [ms]
ExecutionTime = 6404.21 s  ClockTime = 6436 s

Time = 0.0015

Courant Number mean: 0.036114 max: 0.598571
[INFO] MatrixAssemblyU: 614.137 [ms]
DILUPBiCGStab:  Solving for Ux, Initial residual = 0.0494267, Final residual = 0.00366172, No Iterations 5
DILUPBiCGStab:  Solving for Uy, Initial residual = 0.214927, Final residual = 0.0120599, No Iterations 5
DILUPBiCGStab:  Solving for Uz, Initial residual = 0.710654, Final residual = 0.0339129, No Iterations 5
[INFO] MomentumPredictor: 7039.35 [ms]
[INFO] MatrixAssemblyPI: 803.641 [ms]
[INFO] AdjustPhi: 44.947 [ms]
[INFO] ConstrainPressure: 0.004 [ms]
[INFO] MatrixAssemblyPII: 230.428 [ms]
nonePCG:  Solving for p, Initial residual = 0.972627, Final residual = 9.63623e-05, No Iterations 3073
[INFO] SolveP: 332885 [ms]
time step continuity errors : sum local = 3.27587e-08, global = 3.89938e-22, cumulative = 6.32179e-21
[INFO] ContinuityError: 121.717 [ms]
[INFO] CorrectBoundary: 2.424 [ms]
[INFO] PISOStep: 334344 [ms]
[INFO] MatrixAssemblyPI: 786.039 [ms]
[INFO] AdjustPhi: 54.895 [ms]
[INFO] ConstrainPressure: 0.004 [ms]
[INFO] MatrixAssemblyPII: 230.845 [ms]
nonePCG:  Solving for p, Initial residual = 0.908673, Final residual = 9.82766e-05, No Iterations 3069
[INFO] SolveP: 330890 [ms]
time step continuity errors : sum local = 3.38211e-08, global = 7.66486e-22, cumulative = 7.08828e-21
[INFO] ContinuityError: 117.786 [ms]
[INFO] CorrectBoundary: 2.47 [ms]
[INFO] PISOStep: 332345 [ms]
[INFO] TimeStep: 674452 [ms]
ExecutionTime = 7075.35 s  ClockTime = 7111 s

Time = 0.001625

Courant Number mean: 0.0376313 max: 1.1447
[INFO] MatrixAssemblyU: 613.771 [ms]
DILUPBiCGStab:  Solving for Ux, Initial residual = 0.0541994, Final residual = 0.00361794, No Iterations 5
DILUPBiCGStab:  Solving for Uy, Initial residual = 0.243865, Final residual = 0.0133246, No Iterations 5
DILUPBiCGStab:  Solving for Uz, Initial residual = 0.723878, Final residual = 0.0337878, No Iterations 5
[INFO] MomentumPredictor: 7036.83 [ms]
[INFO] MatrixAssemblyPI: 806.174 [ms]
[INFO] AdjustPhi: 46.692 [ms]
[INFO] ConstrainPressure: 0.003 [ms]
[INFO] MatrixAssemblyPII: 230.356 [ms]
nonePCG:  Solving for p, Initial residual = 0.976307, Final residual = 9.81438e-05, No Iterations 3073
[INFO] SolveP: 332571 [ms]
time step continuity errors : sum local = 3.91843e-08, global = 1.26189e-21, cumulative = 8.35017e-21
[INFO] ContinuityError: 124.739 [ms]
[INFO] CorrectBoundary: 2.877 [ms]
[INFO] PISOStep: 334040 [ms]
[INFO] MatrixAssemblyPI: 788.77 [ms]
[INFO] AdjustPhi: 49.145 [ms]
[INFO] ConstrainPressure: 0.003 [ms]
[INFO] MatrixAssemblyPII: 231.048 [ms]
nonePCG:  Solving for p, Initial residual = 0.920398, Final residual = 9.88268e-05, No Iterations 3070
[INFO] SolveP: 330818 [ms]
time step continuity errors : sum local = 3.95602e-08, global = 7.57504e-22, cumulative = 9.10767e-21
[INFO] ContinuityError: 120.435 [ms]
[INFO] CorrectBoundary: 10.239 [ms]
[INFO] PISOStep: 332275 [ms]
[INFO] TimeStep: 674081 [ms]
ExecutionTime = 7746.14 s  ClockTime = 7785 s

Time = 0.00175

Courant Number mean: 0.0387 max: 1.02168
[INFO] MatrixAssemblyU: 613.898 [ms]
DILUPBiCGStab:  Solving for Ux, Initial residual = 0.0624207, Final residual = 0.00391357, No Iterations 5
DILUPBiCGStab:  Solving for Uy, Initial residual = 0.254655, Final residual = 0.0127704, No Iterations 5
DILUPBiCGStab:  Solving for Uz, Initial residual = 0.728617, Final residual = 0.0335359, No Iterations 5
[INFO] MomentumPredictor: 7026.46 [ms]
[INFO] MatrixAssemblyPI: 805.333 [ms]
[INFO] AdjustPhi: 46.317 [ms]
[INFO] ConstrainPressure: 0.005 [ms]
[INFO] MatrixAssemblyPII: 230.731 [ms]
nonePCG:  Solving for p, Initial residual = 0.976948, Final residual = 9.99228e-05, No Iterations 3064
[INFO] SolveP: 332775 [ms]
time step continuity errors : sum local = 4.71262e-08, global = -1.36136e-22, cumulative = 8.97153e-21
[INFO] ContinuityError: 126.515 [ms]
[INFO] CorrectBoundary: 2.201 [ms]
[INFO] PISOStep: 334246 [ms]
[INFO] MatrixAssemblyPI: 793.046 [ms]
[INFO] AdjustPhi: 47.33 [ms]
[INFO] ConstrainPressure: 0.003 [ms]
[INFO] MatrixAssemblyPII: 230.803 [ms]
nonePCG:  Solving for p, Initial residual = 0.912773, Final residual = 9.71051e-05, No Iterations 3069
[INFO] SolveP: 328650 [ms]
time step continuity errors : sum local = 4.63118e-08, global = 5.35031e-22, cumulative = 9.50657e-21
[INFO] ContinuityError: 116.204 [ms]
[INFO] CorrectBoundary: 2.34 [ms]
[INFO] PISOStep: 330104 [ms]
[INFO] TimeStep: 672100 [ms]
ExecutionTime = 8414.91 s  ClockTime = 8457 s

Time = 0.001875

Courant Number mean: 0.0401896 max: 1.68532
[INFO] MatrixAssemblyU: 613.579 [ms]
DILUPBiCGStab:  Solving for Ux, Initial residual = 0.0696083, Final residual = 0.00401298, No Iterations 5
DILUPBiCGStab:  Solving for Uy, Initial residual = 0.287391, Final residual = 0.0141276, No Iterations 5
DILUPBiCGStab:  Solving for Uz, Initial residual = 0.73784, Final residual = 0.0333712, No Iterations 5
[INFO] MomentumPredictor: 7083.84 [ms]
[INFO] MatrixAssemblyPI: 804.693 [ms]
[INFO] AdjustPhi: 46.28 [ms]
[INFO] ConstrainPressure: 0.004 [ms]
[INFO] MatrixAssemblyPII: 231.478 [ms]
nonePCG:  Solving for p, Initial residual = 0.979122, Final residual = 9.91147e-05, No Iterations 3077
[INFO] SolveP: 335460 [ms]
time step continuity errors : sum local = 5.52495e-08, global = -3.69905e-22, cumulative = 9.13666e-21
[INFO] ContinuityError: 113.412 [ms]
[INFO] CorrectBoundary: 2.488 [ms]
[INFO] PISOStep: 336915 [ms]
[INFO] MatrixAssemblyPI: 788.429 [ms]
[INFO] AdjustPhi: 50.763 [ms]
[INFO] ConstrainPressure: 0.004 [ms]
[INFO] MatrixAssemblyPII: 231.088 [ms]
nonePCG:  Solving for p, Initial residual = 0.920891, Final residual = 9.8303e-05, No Iterations 3073
[INFO] SolveP: 332488 [ms]
time step continuity errors : sum local = 5.50245e-08, global = 7.12073e-22, cumulative = 9.84873e-21
[INFO] ContinuityError: 113.382 [ms]
[INFO] CorrectBoundary: 3.327 [ms]
[INFO] PISOStep: 333938 [ms]
[INFO] TimeStep: 678662 [ms]
ExecutionTime = 9090.2 s  ClockTime = 9135 s

Time = 0.002

Courant Number mean: 0.0411915 max: 1.72722
[INFO] MatrixAssemblyU: 614.588 [ms]
DILUPBiCGStab:  Solving for Ux, Initial residual = 0.0814177, Final residual = 0.00442852, No Iterations 5
DILUPBiCGStab:  Solving for Uy, Initial residual = 0.304634, Final residual = 0.0140189, No Iterations 5
DILUPBiCGStab:  Solving for Uz, Initial residual = 0.741668, Final residual = 0.0331874, No Iterations 5
[INFO] MomentumPredictor: 7042.01 [ms]
[INFO] MatrixAssemblyPI: 806.072 [ms]
[INFO] AdjustPhi: 54.345 [ms]
[INFO] ConstrainPressure: 0.003 [ms]
[INFO] MatrixAssemblyPII: 231.559 [ms]
nonePCG:  Solving for p, Initial residual = 0.980248, Final residual = 9.93592e-05, No Iterations 3078
[INFO] SolveP: 332564 [ms]
time step continuity errors : sum local = 6.57209e-08, global = 1.21104e-21, cumulative = 1.10598e-20
[INFO] ContinuityError: 115.897 [ms]
[INFO] CorrectBoundary: 2.954 [ms]
[INFO] PISOStep: 334032 [ms]
[INFO] MatrixAssemblyPI: 791.375 [ms]
[INFO] AdjustPhi: 51.922 [ms]
[INFO] ConstrainPressure: 0.004 [ms]
[INFO] MatrixAssemblyPII: 231.107 [ms]
nonePCG:  Solving for p, Initial residual = 0.915846, Final residual = 9.99471e-05, No Iterations 3074
[INFO] SolveP: 329974 [ms]
time step continuity errors : sum local = 6.67979e-08, global = 2.44122e-22, cumulative = 1.13039e-20
[INFO] ContinuityError: 113.63 [ms]
[INFO] CorrectBoundary: 3.24 [ms]
[INFO] PISOStep: 331429 [ms]
[INFO] TimeStep: 673228 [ms]
ExecutionTime = 9760.09 s  ClockTime = 9809 s

Time = 0.002125

Courant Number mean: 0.0427247 max: 2.56757
[INFO] MatrixAssemblyU: 612.641 [ms]
DILUPBiCGStab:  Solving for Ux, Initial residual = 0.0917273, Final residual = 0.0046958, No Iterations 5
DILUPBiCGStab:  Solving for Uy, Initial residual = 0.340432, Final residual = 0.0154409, No Iterations 5
DILUPBiCGStab:  Solving for Uz, Initial residual = 0.747702, Final residual = 0.0330969, No Iterations 5
[INFO] MomentumPredictor: 7073.31 [ms]
[INFO] MatrixAssemblyPI: 804.93 [ms]
[INFO] AdjustPhi: 46.837 [ms]
[INFO] ConstrainPressure: 0.004 [ms]
[INFO] MatrixAssemblyPII: 230.758 [ms]
nonePCG:  Solving for p, Initial residual = 0.981294, Final residual = 9.95929e-05, No Iterations 3078
[INFO] SolveP: 332505 [ms]
time step continuity errors : sum local = 7.85001e-08, global = 1.58741e-21, cumulative = 1.28913e-20
[INFO] ContinuityError: 119.321 [ms]
[INFO] CorrectBoundary: 2.009 [ms]
[INFO] PISOStep: 333967 [ms]
[INFO] MatrixAssemblyPI: 792.201 [ms]
[INFO] AdjustPhi: 46.285 [ms]
[INFO] ConstrainPressure: 0.004 [ms]
[INFO] MatrixAssemblyPII: 230.932 [ms]
nonePCG:  Solving for p, Initial residual = 0.920888, Final residual = 9.97842e-05, No Iterations 3075
[INFO] SolveP: 329584 [ms]
time step continuity errors : sum local = 7.909e-08, global = 4.6198e-22, cumulative = 1.33533e-20
[INFO] ContinuityError: 125.248 [ms]
[INFO] CorrectBoundary: 3.019 [ms]
[INFO] PISOStep: 331045 [ms]
[INFO] TimeStep: 672808 [ms]
ExecutionTime = 10429.5 s  ClockTime = 10481 s

Time = 0.00225

Courant Number mean: 0.0437438 max: 2.88681
[INFO] MatrixAssemblyU: 613.425 [ms]
DILUPBiCGStab:  Solving for Ux, Initial residual = 0.108703, Final residual = 0.00530252, No Iterations 5
DILUPBiCGStab:  Solving for Uy, Initial residual = 0.363957, Final residual = 0.0157179, No Iterations 5
DILUPBiCGStab:  Solving for Uz, Initial residual = 0.750307, Final residual = 0.0328714, No Iterations 5
[INFO] MomentumPredictor: 7038.8 [ms]
[INFO] MatrixAssemblyPI: 804.296 [ms]
[INFO] AdjustPhi: 61.75 [ms]
[INFO] ConstrainPressure: 0.004 [ms]
[INFO] MatrixAssemblyPII: 230.407 [ms]
nonePCG:  Solving for p, Initial residual = 0.982541, Final residual = 9.81724e-05, No Iterations 3082
[INFO] SolveP: 334270 [ms]
time step continuity errors : sum local = 9.25616e-08, global = 1.65085e-21, cumulative = 1.50041e-20
[INFO] ContinuityError: 120.299 [ms]
[INFO] CorrectBoundary: 2.511 [ms]
[INFO] PISOStep: 335747 [ms]
[INFO] MatrixAssemblyPI: 786.461 [ms]
[INFO] AdjustPhi: 54.582 [ms]
[INFO] ConstrainPressure: 0.003 [ms]
[INFO] MatrixAssemblyPII: 230.658 [ms]
nonePCG:  Solving for p, Initial residual = 0.91797, Final residual = 9.95063e-05, No Iterations 3077
[INFO] SolveP: 333141 [ms]
time step continuity errors : sum local = 9.47453e-08, global = 1.20789e-21, cumulative = 1.6212e-20
[INFO] ContinuityError: 112.765 [ms]
[INFO] CorrectBoundary: 2.413 [ms]
[INFO] PISOStep: 334585 [ms]
[INFO] TimeStep: 678096 [ms]
ExecutionTime = 11104.3 s  ClockTime = 11160 s

Time = 0.002375

Courant Number mean: 0.045408 max: 4.00916
[INFO] MatrixAssemblyU: 612.66 [ms]
DILUPBiCGStab:  Solving for Ux, Initial residual = 0.123025, Final residual = 0.00575542, No Iterations 5
DILUPBiCGStab:  Solving for Uy, Initial residual = 0.40101, Final residual = 0.0171829, No Iterations 5
DILUPBiCGStab:  Solving for Uz, Initial residual = 0.754079, Final residual = 0.0328346, No Iterations 5
[INFO] MomentumPredictor: 7053.05 [ms]
[INFO] MatrixAssemblyPI: 803.457 [ms]
[INFO] AdjustPhi: 47.906 [ms]
[INFO] ConstrainPressure: 0.004 [ms]
[INFO] MatrixAssemblyPII: 230.399 [ms]
nonePCG:  Solving for p, Initial residual = 0.982978, Final residual = 9.81863e-05, No Iterations 3083
[INFO] SolveP: 335202 [ms]
time step continuity errors : sum local = 1.11194e-07, global = 2.47968e-21, cumulative = 1.86917e-20
[INFO] ContinuityError: 126.39 [ms]
[INFO] CorrectBoundary: 3.264 [ms]
[INFO] PISOStep: 336671 [ms]
[INFO] MatrixAssemblyPI: 793.826 [ms]
[INFO] AdjustPhi: 46.685 [ms]
[INFO] ConstrainPressure: 0.003 [ms]
[INFO] MatrixAssemblyPII: 230.938 [ms]
nonePCG:  Solving for p, Initial residual = 0.921155, Final residual = 9.96281e-05, No Iterations 3079
[INFO] SolveP: 332701 [ms]
time step continuity errors : sum local = 1.13582e-07, global = 4.32047e-22, cumulative = 1.91238e-20
[INFO] ContinuityError: 119.613 [ms]
[INFO] CorrectBoundary: 4.259 [ms]
[INFO] PISOStep: 334153 [ms]
[INFO] TimeStep: 678599 [ms]
ExecutionTime = 11779.5 s  ClockTime = 11838 s

Time = 0.0025

Courant Number mean: 0.0465596 max: 4.77646
[INFO] MatrixAssemblyU: 613.932 [ms]
DILUPBiCGStab:  Solving for Ux, Initial residual = 0.146967, Final residual = 0.00663494, No Iterations 5
DILUPBiCGStab:  Solving for Uy, Initial residual = 0.429084, Final residual = 0.0177681, No Iterations 5
DILUPBiCGStab:  Solving for Uz, Initial residual = 0.755586, Final residual = 0.032621, No Iterations 5
[INFO] MomentumPredictor: 7048.4 [ms]
[INFO] MatrixAssemblyPI: 803.464 [ms]
[INFO] AdjustPhi: 45.354 [ms]
[INFO] ConstrainPressure: 0.004 [ms]
[INFO] MatrixAssemblyPII: 230.555 [ms]
nonePCG:  Solving for p, Initial residual = 0.983896, Final residual = 9.90997e-05, No Iterations 3084
[INFO] SolveP: 333985 [ms]
time step continuity errors : sum local = 1.35209e-07, global = -9.21428e-22, cumulative = 1.82023e-20
[INFO] ContinuityError: 120.372 [ms]
[INFO] CorrectBoundary: 2.523 [ms]
[INFO] PISOStep: 335443 [ms]
[INFO] MatrixAssemblyPI: 786.934 [ms]
[INFO] AdjustPhi: 44.199 [ms]
[INFO] ConstrainPressure: 0.004 [ms]
[INFO] MatrixAssemblyPII: 231.224 [ms]
nonePCG:  Solving for p, Initial residual = 0.919315, Final residual = 9.76196e-05, No Iterations 3081
[INFO] SolveP: 334329 [ms]
time step continuity errors : sum local = 1.34474e-07, global = -8.92011e-22, cumulative = 1.73103e-20
[INFO] ContinuityError: 111.559 [ms]
[INFO] CorrectBoundary: 3.064 [ms]
[INFO] PISOStep: 335764 [ms]
[INFO] TimeStep: 678979 [ms]
ExecutionTime = 12455.2 s  ClockTime = 12517 s

End

Finalising parallel run
