/*---------------------------------------------------------------------------*\
| =========                 |                                                 |
| \\      /  F ield         | OpenFOAM: The Open Source CFD Toolbox           |
|  \\    /   O peration     | Version:  2306                                  |
|   \\  /    A nd           | Website:  www.openfoam.com                      |
|    \\/     M anipulation  |                                                 |
\*---------------------------------------------------------------------------*/
Build  : c423ebec-20231012 OPENFOAM=2306 version=v2306
Arch   : "LSB;label=32;scalar=64"
Exec   : simpleFoam -parallel -case /hkfs/work/workspace/scratch/eq4036-windsorbody_setup/workspace/98ca49735ecd5b79966a9be8da85a531/case
Date   : Feb 16 2024
Time   : 20:39:43
Host   : hkn0615.localdomain
PID    : 1747898
I/O    : uncollated
Case   : /hkfs/work/workspace/scratch/eq4036-windsorbody_setup/workspace/98ca49735ecd5b79966a9be8da85a531/case
nProcs : 12
Hosts  :
(
    (hkn0615.localdomain 6)
    (hkn0616.localdomain 6)
)
Pstream initialized with:
    floatTransfer      : false
    nProcsSimpleSum    : 0
    nonBlockingExchange: 0 (tuning: 0)
    exchange algorithm : -1
    commsType          : nonBlocking
    polling iterations : 0
trapFpe: Floating point exception trapping enabled (FOAM_SIGFPE).
fileModificationChecking : Monitoring run-time modified files using timeStampMaster (fileModificationSkew 5, maxFileModificationPolls 20)
allowSystemOperations : Allowing user-supplied system call operations

// * * * * * * * * * * * * * * * * * * * * * * * * * * * * * * * * * * * * * //
Create time

--> FOAM Warning : 
    From void* Foam::dlLibraryTable::openLibrary(const Foam::fileName&, bool)
    in file db/dynamicLibrary/dlLibraryTable/dlLibraryTable.C at line 188
    Could not load "libpetscFoam.so"
libpetscFoam.so: cannot open shared object file: No such file or directory
Create mesh for time = 0


SIMPLE: convergence criteria
    field p	 tolerance 1e-08
    field U	 tolerance 1e-08
    field k	 tolerance 1e-08
    field omega	 tolerance 1e-08
    field nuTilda	 tolerance 1e-08

Reading field p

Reading field U

Reading/calculating face flux field phi

Selecting incompressible transport model Newtonian
Selecting turbulence model type RAS
Selecting RAS turbulence model SpalartAllmaras
Selecting patchDistMethod meshWave
ft2 term: inactive
RAS
{
    RASModel        SpalartAllmaras;
    turbulence      on;
    printCoeffs     on;
    sigmaNut        0.66666;
    kappa           0.41;
    Cb1             0.1355;
    Cb2             0.622;
    Cw2             0.3;
    Cw3             2;
    Cv1             7.1;
    Cs              0.3;
    ck              0.07000000000000001;
    ft2             false;
    Ct3             1.2;
    Ct4             0.5;
}

No MRF models present

Creating finite volume options from "system/fvOptions"

Selecting finite volume options type velocityDampingConstraint
    Source: velocityDamping
    - selecting all cells
    - selected 50457088 cell(s) with volume 222.6066441270595

Starting time loop

--> FOAM Warning : 
    From bool Foam::functionObjectList::read()
    in file db/functionObjects/functionObjectList/functionObjectList.C at line 1035
    Reading "system/controlDict" at line 2 to 41
    Entry 'lref' is not a dictionary
--> FOAM Warning : 
    From bool Foam::functionObjectList::read()
    in file db/functionObjects/functionObjectList/functionObjectList.C at line 1035
    Reading "system/controlDict" at line 2 to 41
    Entry 'Aref' is not a dictionary
--> FOAM Warning : 
    From bool Foam::functionObjectList::read()
    in file db/functionObjects/functionObjectList/functionObjectList.C at line 1035
    Reading "system/controlDict" at line 2 to 41
    Entry 'yawAngle' is not a dictionary
--> FOAM Warning : 
    From bool Foam::functionObjectList::read()
    in file db/functionObjects/functionObjectList/functionObjectList.C at line 1035
    Reading "system/controlDict" at line 2 to 41
    Entry 'lDomain' is not a dictionary
--> FOAM Warning : 
    From bool Foam::functionObjectList::read()
    in file db/functionObjects/functionObjectList/functionObjectList.C at line 1035
    Reading "system/controlDict" at line 2 to 41
    Entry 'bDomain' is not a dictionary
--> FOAM Warning : 
    From bool Foam::functionObjectList::read()
    in file db/functionObjects/functionObjectList/functionObjectList.C at line 1035
    Reading "system/controlDict" at line 2 to 41
    Entry 'hDomain' is not a dictionary
--> FOAM Warning : 
    From bool Foam::functionObjectList::read()
    in file db/functionObjects/functionObjectList/functionObjectList.C at line 1035
    Reading "system/controlDict" at line 2 to 41
    Entry 'xCenter' is not a dictionary
--> FOAM Warning : 
    From bool Foam::functionObjectList::read()
    in file db/functionObjects/functionObjectList/functionObjectList.C at line 1035
    Reading "system/controlDict" at line 2 to 41
    Entry 'yCenter' is not a dictionary
--> FOAM Warning : 
    From bool Foam::functionObjectList::read()
    in file db/functionObjects/functionObjectList/functionObjectList.C at line 1035
    Reading "system/controlDict" at line 2 to 41
    Entry 'zCenter' is not a dictionary
--> FOAM Warning : 
    From bool Foam::functionObjectList::read()
    in file db/functionObjects/functionObjectList/functionObjectList.C at line 1035
    Reading "system/controlDict" at line 2 to 41
    Entry 'inletPatch' is not a dictionary
--> FOAM Warning : 
    From bool Foam::functionObjectList::read()
    in file db/functionObjects/functionObjectList/functionObjectList.C at line 1035
    Reading "system/controlDict" at line 2 to 41
    Entry 'outletPatch' is not a dictionary
--> FOAM Warning : 
    From bool Foam::functionObjectList::read()
    in file db/functionObjects/functionObjectList/functionObjectList.C at line 1035
    Reading "system/controlDict" at line 2 to 41
    Entry 'wallPatches' is not a dictionary
--> FOAM Warning : 
    From bool Foam::functionObjectList::read()
    in file db/functionObjects/functionObjectList/functionObjectList.C at line 1035
    Reading "system/controlDict" at line 2 to 41
    Entry 'forcesWallPatches' is not a dictionary
--> FOAM Warning : 
    From bool Foam::functionObjectList::read()
    in file db/functionObjects/functionObjectList/functionObjectList.C at line 1035
    Reading "system/controlDict" at line 2 to 41
    Entry 'symmPatches' is not a dictionary
--> FOAM Warning : 
    From bool Foam::functionObjectList::read()
    in file db/functionObjects/functionObjectList/functionObjectList.C at line 1035
    Reading "system/controlDict" at line 2 to 41
    Entry 'Uinf' is not a dictionary
--> FOAM Warning : 
    From bool Foam::functionObjectList::read()
    in file db/functionObjects/functionObjectList/functionObjectList.C at line 1035
    Reading "system/controlDict" at line 2 to 41
    Entry 'UinfMag' is not a dictionary
--> FOAM Warning : 
    From bool Foam::functionObjectList::read()
    in file db/functionObjects/functionObjectList/functionObjectList.C at line 1035
    Reading "system/controlDict" at line 2 to 41
    Entry 'nu' is not a dictionary
--> FOAM Warning : 
    From bool Foam::functionObjectList::read()
    in file db/functionObjects/functionObjectList/functionObjectList.C at line 1035
    Reading "system/controlDict" at line 2 to 41
    Entry 'pref' is not a dictionary
--> FOAM Warning : 
    From bool Foam::functionObjectList::read()
    in file db/functionObjects/functionObjectList/functionObjectList.C at line 1035
    Reading "system/controlDict" at line 2 to 41
    Entry 'viscRatio' is not a dictionary
--> FOAM Warning : 
    From bool Foam::functionObjectList::read()
    in file db/functionObjects/functionObjectList/functionObjectList.C at line 1035
    Reading "system/controlDict" at line 2 to 41
    Entry 'Tu' is not a dictionary
--> FOAM Warning : 
    From bool Foam::functionObjectList::read()
    in file db/functionObjects/functionObjectList/functionObjectList.C at line 1035
    Reading "system/controlDict" at line 2 to 41
    Entry 'LESturbModel' is not a dictionary
--> FOAM Warning : 
    From bool Foam::functionObjectList::read()
    in file db/functionObjects/functionObjectList/functionObjectList.C at line 1035
    Reading "system/controlDict" at line 2 to 41
    Entry 'RASturbModel' is not a dictionary
--> FOAM Warning : 
    From bool Foam::functionObjectList::read()
    in file db/functionObjects/functionObjectList/functionObjectList.C at line 1035
    Reading "system/controlDict" at line 2 to 41
    Entry 'deltaTurb' is not a dictionary
--> FOAM Warning : 
    From bool Foam::functionObjectList::read()
    in file db/functionObjects/functionObjectList/functionObjectList.C at line 1035
    Reading "system/controlDict" at line 2 to 41
    Entry 'dt' is not a dictionary
--> FOAM Warning : 
    From bool Foam::functionObjectList::read()
    in file db/functionObjects/functionObjectList/functionObjectList.C at line 1035
    Reading "system/controlDict" at line 2 to 41
    Entry 'tAvg' is not a dictionary
--> FOAM Warning : 
    From bool Foam::functionObjectList::read()
    in file db/functionObjects/functionObjectList/functionObjectList.C at line 1035
    Reading "system/controlDict" at line 2 to 41
    Entry 'tEnd' is not a dictionary
--> FOAM Warning : 
    From bool Foam::functionObjectList::read()
    in file db/functionObjects/functionObjectList/functionObjectList.C at line 1035
    Reading "system/controlDict" at line 2 to 41
    Entry 'writeInterval_' is not a dictionary
--> FOAM Warning : 
    From bool Foam::functionObjectList::read()
    in file db/functionObjects/functionObjectList/functionObjectList.C at line 1035
    Reading "system/controlDict" at line 2 to 41
    Entry 'nCores' is not a dictionary
--> FOAM Warning : 
    From bool Foam::functionObjectList::read()
    in file db/functionObjects/functionObjectList/functionObjectList.C at line 1035
    Reading "system/controlDict" at line 2 to 41
    Entry 'interpScheme' is not a dictionary
--> FOAM Warning : 
    From bool Foam::functionObjectList::read()
    in file db/functionObjects/functionObjectList/functionObjectList.C at line 1035
    Reading "system/controlDict" at line 2 to 41
    Entry 'probeField' is not a dictionary
wallShearStress wallShearStress:
    processing wall patches: 
        Windsor_Body
        CFDWT_Floor
        Windsor_Pins
        Windsor_Base
        Windsor_Body_2
        CFDWT_Floor_2
        Windsor_Pins_2
        Windsor_Base_2
        Windsor_Body_3
        CFDWT_Floor_3
        Windsor_Pins_3
        Windsor_Base_3
        Windsor_Body_4
        CFDWT_Floor_4
        Windsor_Pins_4
        Windsor_Base_4
        Windsor_Body_5
        CFDWT_Floor_5
        Windsor_Pins_5
        Windsor_Base_5
        Windsor_Body_6
        CFDWT_Floor_6
        Windsor_Pins_6
        Windsor_Base_6
        Windsor_Body_7
        CFDWT_Floor_7
        Windsor_Pins_7
        Windsor_Base_7
        Windsor_Body_8
        CFDWT_Floor_8
        Windsor_Pins_8
        Windsor_Base_8

pressure calc_cp:
    Operating mode: staticCoeff
    Not including hydrostatic effects

forceCoeffs forceCoeffsAll:
    rho: rhoInf
    Freestream density (rhoInf) set to 1
    Not including porosity effects
    magUInf: 40
    lRef   : 0.6375
    Aref   : 0.1124
    rhoInf : 1
    Selecting all coefficients
    - Drag force: Cd
    - Drag force front: Cd(f)
    - Drag force rear: Cd(r)
    - Lift force: Cl
    - Lift force front: Cl(f)
    - Lift force rear: Cl(r)
    - Pitch moment: CmPitch
    - Roll moment: CmRoll
    - Yaw moment: CmYaw
    - Side force: Cs
    - Side force front: Cs(f)
    - Side force rear: Cs(r)


forceCoeffs dragCoeffBase:
    rho: rhoInf
    Freestream density (rhoInf) set to 1
    Not including porosity effects
    magUInf: 40
    lRef   : 0.6375
    Aref   : 0.1124
    rhoInf : 1
    Selecting coefficients:
    - Drag force: Cd


Time = 1

velocityDampingConstraint velocityDamping damped 0 (0%) of cells, with max limit 300
[OGL LOG][lduLduBase.H:119] Initialising OGL
	OGL commit:  e75313f+
	Branch: dev 
	Build type: Debug
	Ginkgo version: 1.8.0 ( develop)
	Ginkgo commit: sparse-communicator
	MPI is GPU aware: 1
	Forces host buffer based communication: 0
	CPU ranks per GPU: 1
	Matrix format: Coo
	End OGL_INFO
[OGL LOG][Proc: 0]: global_index_init: 22.184 [ms]
[OGL LOG][Proc: 0]Ux_local_cols: call_init: 0.279 [ms]
[OGL LOG][Proc: 0]Ux_local_rows: call_init: 0.026 [ms]
[OGL LOG][Proc: 0]Ux_local_ldu_map: call_init: 0.018 [ms]
[OGL LOG][Proc: 0]Ux_local_coeffs: call_init: 3.921 [ms]
[OGL LOG][Proc: 0]Ux_non_local_cols: call_init: 0.033 [ms]
[OGL LOG][Proc: 0]Ux_non_local_rows: call_init: 0.005 [ms]
[OGL LOG][Proc: 0]Ux_non_local_ldu_map: call_init: 0.018 [ms]
[OGL LOG][Proc: 0]Ux_non_local_coeffs: call_init: 0.02 [ms]
[OGL LOG][Proc: 0]Ux: init_local_sparsity_pattern: 191206.046 [ms]
[OGL LOG][Proc: 0]Ux: init_non_local_sparsity_pattern: 129.027 [ms]
[OGL LOG][Proc: 0]Ux: update_local_matrix_data: 204.259 [ms]
[OGL LOG][Proc: 0]Ux: update_non_local_matrix_data: 1.14 [ms]
[OGL LOG][Proc: 0]device_partition: call_init: 1.302 [ms]
[OGL LOG][Proc: 0]Ux_matrix: call_init: 371.864 [ms]
[OGL LOG][Proc: 0]Ux_rhs: call_init: 11.368 [ms]
[OGL LOG][Proc: 0]Ux_solution: call_init: 10.961 [ms]
[OGL LOG][Preconditioner.H:121] Generate preconditioner BJ MaxBlockSize 1
[OGL LOG][Proc: 0]Ux: init_precond: 11.651 [ms]
[OGL LOG][StoppingCriterion.H:239] Creating stopping criterion with minIter 0 frequency 1
[OGL LOG][Proc: 0]Ux: generate_solver: 0.324 [ms]
[OGL LOG][Proc: 0]Ux: solve: 308.698 [ms]
[OGL LOG][Proc: 0]Ux: copy_x_back: 16.364 [ms]
[OGL LOG][lduLduBase.H:330] 
Statistics:
	Time per iteration: 44099 [mu s]
	Time per residual norm calculation: 3813.000000 [mu s]
	Time per iteration and DOF: 0.873990 [ns]
	Retrieve results bandwidth 2.066000 [GByte/s]
[OGL LOG][Proc: 0]Ux: solve_multi_gpu: 997.629 [ms]
BJcudaGKOBiCGStab:  Solving for Ux, Initial residual = 1.000000000001701, Final residual = 0.04568491065504857, No Iterations 7
[OGL LOG][lduLduBase.H:119] Initialising OGL
	OGL commit:  e75313f+
	Branch: dev 
	Build type: Debug
	Ginkgo version: 1.8.0 ( develop)
	Ginkgo commit: sparse-communicator
	MPI is GPU aware: 1
	Forces host buffer based communication: 0
	CPU ranks per GPU: 1
	Matrix format: Coo
	End OGL_INFO
[OGL LOG][Proc: 0]: global_index_init: 2.785 [ms]
[OGL LOG][Proc: 0]Uy_local_cols: call_init: 0.034 [ms]
[OGL LOG][Proc: 0]Uy_local_rows: call_init: 0.026 [ms]
[OGL LOG][Proc: 0]Uy_local_ldu_map: call_init: 0.022 [ms]
[OGL LOG][Proc: 0]Uy_local_coeffs: call_init: 1.326 [ms]
[OGL LOG][Proc: 0]Uy_non_local_cols: call_init: 0.014 [ms]
[OGL LOG][Proc: 0]Uy_non_local_rows: call_init: 0.004 [ms]
[OGL LOG][Proc: 0]Uy_non_local_ldu_map: call_init: 0.003 [ms]
[OGL LOG][Proc: 0]Uy_non_local_coeffs: call_init: 0.008999999999999999 [ms]
[OGL LOG][Proc: 0]Uy: init_local_sparsity_pattern: 191189.056 [ms]
[OGL LOG][Proc: 0]Uy: init_non_local_sparsity_pattern: 128.883 [ms]
[OGL LOG][Proc: 0]Uy: update_local_matrix_data: 167.863 [ms]
[OGL LOG][Proc: 0]Uy: update_non_local_matrix_data: 1.211 [ms]
[OGL LOG][Proc: 0]Uy_matrix: call_init: 368.791 [ms]
[OGL LOG][Proc: 0]Uy_rhs: call_init: 11.315 [ms]
[OGL LOG][Proc: 0]Uy_solution: call_init: 11.22 [ms]
[OGL LOG][Preconditioner.H:121] Generate preconditioner BJ MaxBlockSize 1
[OGL LOG][Proc: 0]Uy: init_precond: 2.191 [ms]
[OGL LOG][StoppingCriterion.H:239] Creating stopping criterion with minIter 0 frequency 1
[OGL LOG][Proc: 0]Uy: generate_solver: 0.026 [ms]
[OGL LOG][Proc: 0]Uy: solve: 327.616 [ms]
[OGL LOG][Proc: 0]Uy: copy_x_back: 16.167 [ms]
[OGL LOG][lduLduBase.H:330] 
Statistics:
	Time per iteration: 32761 [mu s]
	Time per residual norm calculation: 1298.000000 [mu s]
	Time per iteration and DOF: 0.649284 [ns]
	Retrieve results bandwidth 2.092000 [GByte/s]
[OGL LOG][Proc: 0]Uy: solve_multi_gpu: 986.284 [ms]
BJcudaGKOBiCGStab:  Solving for Uy, Initial residual = 0.9999999999999836, Final residual = 0.07725065440062977, No Iterations 10
[OGL LOG][lduLduBase.H:119] Initialising OGL
	OGL commit:  e75313f+
	Branch: dev 
	Build type: Debug
	Ginkgo version: 1.8.0 ( develop)
	Ginkgo commit: sparse-communicator
	MPI is GPU aware: 1
	Forces host buffer based communication: 0
	CPU ranks per GPU: 1
	Matrix format: Coo
	End OGL_INFO
[OGL LOG][Proc: 0]: global_index_init: 1.063 [ms]
[OGL LOG][Proc: 0]Uz_local_cols: call_init: 0.043 [ms]
[OGL LOG][Proc: 0]Uz_local_rows: call_init: 0.021 [ms]
[OGL LOG][Proc: 0]Uz_local_ldu_map: call_init: 0.013 [ms]
[OGL LOG][Proc: 0]Uz_local_coeffs: call_init: 1.29 [ms]
[OGL LOG][Proc: 0]Uz_non_local_cols: call_init: 0.013 [ms]
[OGL LOG][Proc: 0]Uz_non_local_rows: call_init: 0.005 [ms]
[OGL LOG][Proc: 0]Uz_non_local_ldu_map: call_init: 0.004 [ms]
[OGL LOG][Proc: 0]Uz_non_local_coeffs: call_init: 0.008 [ms]
[OGL LOG][Proc: 0]Uz: init_local_sparsity_pattern: 191126.422 [ms]
[OGL LOG][Proc: 0]Uz: init_non_local_sparsity_pattern: 128.739 [ms]
[OGL LOG][Proc: 0]Uz: update_local_matrix_data: 168.559 [ms]
[OGL LOG][Proc: 0]Uz: update_non_local_matrix_data: 1.178 [ms]
[OGL LOG][Proc: 0]Uz_matrix: call_init: 369.866 [ms]
[OGL LOG][Proc: 0]Uz_rhs: call_init: 11.878 [ms]
[OGL LOG][Proc: 0]Uz_solution: call_init: 11.437 [ms]
[OGL LOG][Preconditioner.H:121] Generate preconditioner BJ MaxBlockSize 1
[OGL LOG][Proc: 0]Uz: init_precond: 2.204 [ms]
[OGL LOG][StoppingCriterion.H:239] Creating stopping criterion with minIter 0 frequency 1
[OGL LOG][Proc: 0]Uz: generate_solver: 0.033 [ms]
[OGL LOG][Proc: 0]Uz: solve: 216.874 [ms]
[OGL LOG][Proc: 0]Uz: copy_x_back: 16.764 [ms]
[OGL LOG][lduLduBase.H:330] 
Statistics:
	Time per iteration: 216874 [mu s]
	Time per residual norm calculation: 1804.000000 [mu s]
	Time per iteration and DOF: 4.298187 [ns]
	Retrieve results bandwidth 2.017000 [GByte/s]
[OGL LOG][Proc: 0]Uz: solve_multi_gpu: 877.348 [ms]
BJcudaGKOBiCGStab:  Solving for Uz, Initial residual = 1.000000000000016, Final residual = 0.07317246117890994, No Iterations 1
[OGL LOG][lduLduBase.H:119] Initialising OGL
	OGL commit:  e75313f+
	Branch: dev 
	Build type: Debug
	Ginkgo version: 1.8.0 ( develop)
	Ginkgo commit: sparse-communicator
	MPI is GPU aware: 1
	Forces host buffer based communication: 0
	CPU ranks per GPU: 1
	Matrix format: Coo
	End OGL_INFO
[OGL LOG][Proc: 0]: global_index_init: 0.416 [ms]
[OGL LOG][Proc: 0]p_local_cols: call_init: 0.048 [ms]
[OGL LOG][Proc: 0]p_local_rows: call_init: 0.023 [ms]
[OGL LOG][Proc: 0]p_local_ldu_map: call_init: 0.023 [ms]
[OGL LOG][Proc: 0]p_local_coeffs: call_init: 1.305 [ms]
[OGL LOG][Proc: 0]p_non_local_cols: call_init: 0.033 [ms]
[OGL LOG][Proc: 0]p_non_local_rows: call_init: 0.008999999999999999 [ms]
[OGL LOG][Proc: 0]p_non_local_ldu_map: call_init: 0.01 [ms]
[OGL LOG][Proc: 0]p_non_local_coeffs: call_init: 0.014 [ms]
[OGL LOG][Proc: 0]p: init_local_sparsity_pattern: 191355.774 [ms]
[OGL LOG][Proc: 0]p: init_non_local_sparsity_pattern: 272.434 [ms]
[OGL LOG][Proc: 0]p: update_local_matrix_data: 132.046 [ms]
[OGL LOG][Proc: 0]p: update_non_local_matrix_data: 1.335 [ms]
[OGL LOG][Proc: 0]p_matrix: call_init: 364.734 [ms]
[OGL LOG][Proc: 0]p_rhs: call_init: 11.326 [ms]
[OGL LOG][Proc: 0]p_solution: call_init: 11.173 [ms]
[OGL LOG][Preconditioner.H:346] Generate preconditioner Multigrid MaxLevels 9 MinCoarseRows 10 ZeroGuess 1 Cycle v
[OGL LOG][Proc: 0]p: init_precond: 1108.623 [ms]
[OGL LOG][StoppingCriterion.H:239] Creating stopping criterion with minIter 0 frequency 1
[OGL LOG][Proc: 0]p: generate_solver: 0.033 [ms]
[OGL LOG][Proc: 0]p: solve: 3287.885 [ms]
[OGL LOG][Proc: 0]p: copy_x_back: 16.421 [ms]
[OGL LOG][lduLduBase.H:330] 
Statistics:
	Time per iteration: 26949 [mu s]
	Time per residual norm calculation: 1459.000000 [mu s]
	Time per iteration and DOF: 0.534097 [ns]
	Retrieve results bandwidth 2.059000 [GByte/s]
[OGL LOG][Proc: 0]p: solve_multi_gpu: 5266.622 [ms]
MultigridcudaGKOCG:  Solving for p, Initial residual = 1.000000000001354, Final residual = 0.009897881817657467, No Iterations 122
time step continuity errors : sum local = 0.00358661495905638, global = -3.176293493798535e-05, cumulative = -3.176293493798535e-05
[OGL LOG][lduLduBase.H:119] Initialising OGL
	OGL commit:  e75313f+
	Branch: dev 
	Build type: Debug
	Ginkgo version: 1.8.0 ( develop)
	Ginkgo commit: sparse-communicator
	MPI is GPU aware: 1
	Forces host buffer based communication: 0
	CPU ranks per GPU: 1
	Matrix format: Coo
	End OGL_INFO
[OGL LOG][Proc: 0]: global_index_init: 0.031 [ms]
[OGL LOG][Proc: 0]nuTilda_local_cols: call_init: 0.046 [ms]
[OGL LOG][Proc: 0]nuTilda_local_rows: call_init: 0.022 [ms]
[OGL LOG][Proc: 0]nuTilda_local_ldu_map: call_init: 0.01 [ms]
[OGL LOG][Proc: 0]nuTilda_local_coeffs: call_init: 1.328 [ms]
[OGL LOG][Proc: 0]nuTilda_non_local_cols: call_init: 0.031 [ms]
[OGL LOG][Proc: 0]nuTilda_non_local_rows: call_init: 0.011 [ms]
[OGL LOG][Proc: 0]nuTilda_non_local_ldu_map: call_init: 0.008 [ms]
[OGL LOG][Proc: 0]nuTilda_non_local_coeffs: call_init: 0.016 [ms]
[OGL LOG][Proc: 0]nuTilda: init_local_sparsity_pattern: 191642.112 [ms]
[OGL LOG][Proc: 0]nuTilda: init_non_local_sparsity_pattern: 127.952 [ms]
[OGL LOG][Proc: 0]nuTilda: update_local_matrix_data: 166.047 [ms]
[OGL LOG][Proc: 0]nuTilda: update_non_local_matrix_data: 1.226 [ms]
[OGL LOG][Proc: 0]nuTilda_matrix: call_init: 378.949 [ms]
[OGL LOG][Proc: 0]nuTilda_rhs: call_init: 10.923 [ms]
[OGL LOG][Proc: 0]nuTilda_solution: call_init: 11.199 [ms]
[OGL LOG][Preconditioner.H:121] Generate preconditioner BJ MaxBlockSize 1
[OGL LOG][Proc: 0]nuTilda: init_precond: 2.129 [ms]
[OGL LOG][StoppingCriterion.H:239] Creating stopping criterion with minIter 0 frequency 1
[OGL LOG][Proc: 0]nuTilda: generate_solver: 0.026 [ms]
[OGL LOG][Proc: 0]nuTilda: solve: 238.844 [ms]
[OGL LOG][Proc: 0]nuTilda: copy_x_back: 16.99 [ms]
[OGL LOG][lduLduBase.H:330] 
Statistics:
	Time per iteration: 79614 [mu s]
	Time per residual norm calculation: 1992.000000 [mu s]
	Time per iteration and DOF: 1.577856 [ns]
	Retrieve results bandwidth 1.990000 [GByte/s]
[OGL LOG][Proc: 0]nuTilda: solve_multi_gpu: 907.2809999999999 [ms]
BJcudaGKOBiCGStab:  Solving for nuTilda, Initial residual = 0.999999993256223, Final residual = 0.03403432868962118, No Iterations 3
bounding nuTilda, min: -0.000360515709760439 max: 0.001585842168676336 average: 7.142127057096711e-05
ExecutionTime = 1023.35 s  ClockTime = 1026 s

--> FOAM Warning : 
    From virtual bool Foam::functionObjects::fieldSelection::checkSelection()
    in file functionObjects/fieldSelections/fieldSelection/fieldSelection.C at line 166
    Field k not found
--> FOAM Warning : 
    From virtual bool Foam::functionObjects::fieldSelection::checkSelection()
    in file functionObjects/fieldSelections/fieldSelection/fieldSelection.C at line 166
    Field gammaInt not found
--> FOAM Warning : 
    From virtual bool Foam::functionObjects::fieldSelection::checkSelection()
    in file functionObjects/fieldSelections/fieldSelection/fieldSelection.C at line 166
    Field omega not found
--> FOAM Warning : 
    From virtual bool Foam::functionObjects::fieldSelection::checkSelection()
    in file functionObjects/fieldSelections/fieldSelection/fieldSelection.C at line 166
    Field ReThetat not found
--> FOAM Warning : 
    From virtual bool Foam::functionObjects::fieldSelection::checkSelection()
    in file functionObjects/fieldSelections/fieldSelection/fieldSelection.C at line 166
    Field epsilon not found
--> FOAM Warning : 
    From virtual bool Foam::functionObjects::solverFieldSelection::updateSelection()
    in file functionObjects/fieldSelections/solverFieldSelection/solverFieldSelection.C at line 85
    Valid solver fields are: 3(U nuTilda p)Time = 2

velocityDampingConstraint velocityDamping damped 0 (0%) of cells, with max limit 300
[OGL LOG][Proc: 0]: global_index_init: 0.229 [ms]
[OGL LOG][Proc: 0]Ux_local_coeffs: call_update: 0.001 [ms]
[OGL LOG][Proc: 0]Ux_non_local_coeffs: call_update: 0 [ms]
[OGL LOG][Proc: 0]Ux: update_local_matrix_data: 217.695 [ms]
[OGL LOG][Proc: 0]Ux: update_non_local_matrix_data: 1.07 [ms]
[OGL LOG][Proc: 0]Ux_matrix: call_update: 5.096 [ms]
[OGL LOG][Proc: 0]Ux_rhs: call_update: 14.503 [ms]
[OGL LOG][Preconditioner.H:121] Generate preconditioner BJ MaxBlockSize 1
[OGL LOG][Proc: 0]Ux: init_precond: 2.418 [ms]
[OGL LOG][StoppingCriterion.H:239] Creating stopping criterion with minIter 8 frequency 1
[OGL LOG][Proc: 0]Ux: generate_solver: 0.019 [ms]
[OGL LOG][Proc: 0]Ux: solve: 240.394 [ms]
[OGL LOG][Proc: 0]Ux: copy_x_back: 16.671 [ms]
[OGL LOG][lduLduBase.H:330] 
Statistics:
	Time per iteration: 60098 [mu s]
	Time per residual norm calculation: 1767.000000 [mu s]
	Time per iteration and DOF: 1.191072 [ns]
	Retrieve results bandwidth 2.028000 [GByte/s]
[OGL LOG][Proc: 0]Ux: solve_multi_gpu: 305.541 [ms]
BJcudaGKOBiCGStab:  Solving for Ux, Initial residual = 0.816482629000206, Final residual = 0.009468375742235241, No Iterations 4
[OGL LOG][Proc: 0]: global_index_init: 0.235 [ms]
[OGL LOG][Proc: 0]Uy_local_coeffs: call_update: 0 [ms]
[OGL LOG][Proc: 0]Uy_non_local_coeffs: call_update: 0 [ms]
[OGL LOG][Proc: 0]Uy: update_local_matrix_data: 213.755 [ms]
[OGL LOG][Proc: 0]Uy: update_non_local_matrix_data: 1.149 [ms]
[OGL LOG][Proc: 0]Uy_matrix: call_update: 4.617 [ms]
[OGL LOG][Proc: 0]Uy_rhs: call_update: 10.77 [ms]
[OGL LOG][Preconditioner.H:121] Generate preconditioner BJ MaxBlockSize 1
[OGL LOG][Proc: 0]Uy: init_precond: 1.487 [ms]
[OGL LOG][StoppingCriterion.H:239] Creating stopping criterion with minIter 12 frequency 1
[OGL LOG][Proc: 0]Uy: generate_solver: 0.016 [ms]
[OGL LOG][Proc: 0]Uy: solve: 261.27 [ms]
[OGL LOG][Proc: 0]Uy: copy_x_back: 16.14 [ms]
[OGL LOG][lduLduBase.H:330] 
Statistics:
	Time per iteration: 37324 [mu s]
	Time per residual norm calculation: 1913.000000 [mu s]
	Time per iteration and DOF: 0.739718 [ns]
	Retrieve results bandwidth 2.095000 [GByte/s]
[OGL LOG][Proc: 0]Uy: solve_multi_gpu: 306.654 [ms]
BJcudaGKOBiCGStab:  Solving for Uy, Initial residual = 0.9993880667636748, Final residual = 0.002354399589642083, No Iterations 7
[OGL LOG][Proc: 0]: global_index_init: 0.238 [ms]
[OGL LOG][Proc: 0]Uz_local_coeffs: call_update: 0 [ms]
[OGL LOG][Proc: 0]Uz_non_local_coeffs: call_update: 0 [ms]
[OGL LOG][Proc: 0]Uz: update_local_matrix_data: 213.001 [ms]
[OGL LOG][Proc: 0]Uz: update_non_local_matrix_data: 1.126 [ms]
[OGL LOG][Proc: 0]Uz_matrix: call_update: 4.807 [ms]
[OGL LOG][Proc: 0]Uz_rhs: call_update: 10.378 [ms]
[OGL LOG][Preconditioner.H:121] Generate preconditioner BJ MaxBlockSize 1
[OGL LOG][Proc: 0]Uz: init_precond: 2.24 [ms]
[OGL LOG][StoppingCriterion.H:239] Creating stopping criterion with minIter 1 frequency 1
[OGL LOG][Proc: 0]Uz: generate_solver: 0.016 [ms]
[OGL LOG][Proc: 0]Uz: solve: 219.491 [ms]
[OGL LOG][Proc: 0]Uz: copy_x_back: 16.834 [ms]
[OGL LOG][lduLduBase.H:330] 
Statistics:
	Time per iteration: 109745 [mu s]
	Time per residual norm calculation: 1739.000000 [mu s]
	Time per iteration and DOF: 2.175017 [ns]
	Retrieve results bandwidth 2.009000 [GByte/s]
[OGL LOG][Proc: 0]Uz: solve_multi_gpu: 281.427 [ms]
BJcudaGKOBiCGStab:  Solving for Uz, Initial residual = 0.9999990687020187, Final residual = 0.09494054543511796, No Iterations 2
[OGL LOG][Proc: 0]: global_index_init: 0.428 [ms]
[OGL LOG][Proc: 0]p_local_coeffs: call_update: 0 [ms]
[OGL LOG][Proc: 0]p_non_local_coeffs: call_update: 0 [ms]
[OGL LOG][Proc: 0]p: update_local_matrix_data: 173.808 [ms]
[OGL LOG][Proc: 0]p: update_non_local_matrix_data: 1.131 [ms]
[OGL LOG][Proc: 0]p_matrix: call_update: 4.71 [ms]
[OGL LOG][Proc: 0]p_rhs: call_update: 10.967 [ms]
[OGL LOG][Preconditioner.H:346] Generate preconditioner Multigrid MaxLevels 9 MinCoarseRows 10 ZeroGuess 1 Cycle v
[OGL LOG][Proc: 0]p: init_precond: 932.558 [ms]
[OGL LOG][StoppingCriterion.H:239] Creating stopping criterion with minIter 73 frequency 1
[OGL LOG][Proc: 0]p: generate_solver: 0.015 [ms]
[OGL LOG][Proc: 0]p: solve: 1960.719 [ms]
[OGL LOG][Proc: 0]p: copy_x_back: 16.887 [ms]
[OGL LOG][lduLduBase.H:330] 
Statistics:
	Time per iteration: 26496 [mu s]
	Time per residual norm calculation: 1324.000000 [mu s]
	Time per iteration and DOF: 0.525119 [ns]
	Retrieve results bandwidth 2.002000 [GByte/s]
[OGL LOG][Proc: 0]p: solve_multi_gpu: 2960.442 [ms]
MultigridcudaGKOCG:  Solving for p, Initial residual = 0.4272563655978914, Final residual = 0.001256889713364335, No Iterations 74
time step continuity errors : sum local = 0.02720841911212461, global = 0.003965213109291254, cumulative = 0.003933450174353269
[OGL LOG][Proc: 0]: global_index_init: 0.024 [ms]
[OGL LOG][Proc: 0]nuTilda_local_coeffs: call_update: 0 [ms]
[OGL LOG][Proc: 0]nuTilda_non_local_coeffs: call_update: 0 [ms]
[OGL LOG][Proc: 0]nuTilda: update_local_matrix_data: 217.533 [ms]
[OGL LOG][Proc: 0]nuTilda: update_non_local_matrix_data: 1.024 [ms]
[OGL LOG][Proc: 0]nuTilda_matrix: call_update: 5.239 [ms]
[OGL LOG][Proc: 0]nuTilda_rhs: call_update: 20.451 [ms]
[OGL LOG][Preconditioner.H:121] Generate preconditioner BJ MaxBlockSize 1
[OGL LOG][Proc: 0]nuTilda: init_precond: 2.398 [ms]
[OGL LOG][StoppingCriterion.H:239] Creating stopping criterion with minIter 3 frequency 1
[OGL LOG][Proc: 0]nuTilda: generate_solver: 0.028 [ms]
[OGL LOG][Proc: 0]nuTilda: solve: 228.289 [ms]
[OGL LOG][Proc: 0]nuTilda: copy_x_back: 16.573 [ms]
[OGL LOG][lduLduBase.H:330] 
Statistics:
	Time per iteration: 114144 [mu s]
	Time per residual norm calculation: 1837.000000 [mu s]
	Time per iteration and DOF: 2.262200 [ns]
	Retrieve results bandwidth 2.040000 [GByte/s]
[OGL LOG][Proc: 0]nuTilda: solve_multi_gpu: 287.662 [ms]
BJcudaGKOBiCGStab:  Solving for nuTilda, Initial residual = 0.2452936882161796, Final residual = 0.01659883751725036, No Iterations 2
ExecutionTime = 1044.49 s  ClockTime = 1047 s

Time = 3

velocityDampingConstraint velocityDamping damped 38947 (0.08%) of cells, with max limit 300
[OGL LOG][Proc: 0]: global_index_init: 0.34 [ms]
[OGL LOG][Proc: 0]Ux_local_coeffs: call_update: 0 [ms]
[OGL LOG][Proc: 0]Ux_non_local_coeffs: call_update: 0 [ms]
[OGL LOG][Proc: 0]Ux: update_local_matrix_data: 214.7 [ms]
[OGL LOG][Proc: 0]Ux: update_non_local_matrix_data: 1.136 [ms]
[OGL LOG][Proc: 0]Ux_matrix: call_update: 5.033 [ms]
[OGL LOG][Proc: 0]Ux_rhs: call_update: 10.852 [ms]
[OGL LOG][Preconditioner.H:121] Generate preconditioner BJ MaxBlockSize 1
[OGL LOG][Proc: 0]Ux: init_precond: 2.269 [ms]
[OGL LOG][StoppingCriterion.H:239] Creating stopping criterion with minIter 5 frequency 1
[OGL LOG][Proc: 0]Ux: generate_solver: 0.018 [ms]
[OGL LOG][Proc: 0]Ux: solve: 228.663 [ms]
[OGL LOG][Proc: 0]Ux: copy_x_back: 16.737 [ms]
[OGL LOG][lduLduBase.H:330] 
Statistics:
	Time per iteration: 76221 [mu s]
	Time per residual norm calculation: 1875.000000 [mu s]
	Time per iteration and DOF: 1.510610 [ns]
	Retrieve results bandwidth 2.020000 [GByte/s]
[OGL LOG][Proc: 0]Ux: solve_multi_gpu: 273.427 [ms]
BJcudaGKOBiCGStab:  Solving for Ux, Initial residual = 0.2854342507251273, Final residual = 0.00479206067789782, No Iterations 3
[OGL LOG][Proc: 0]: global_index_init: 0.242 [ms]
[OGL LOG][Proc: 0]Uy_local_coeffs: call_update: 0 [ms]
[OGL LOG][Proc: 0]Uy_non_local_coeffs: call_update: 0 [ms]
[OGL LOG][Proc: 0]Uy: update_local_matrix_data: 220.526 [ms]
[OGL LOG][Proc: 0]Uy: update_non_local_matrix_data: 1.213 [ms]
[OGL LOG][Proc: 0]Uy_matrix: call_update: 4.975 [ms]
[OGL LOG][Proc: 0]Uy_rhs: call_update: 10.875 [ms]
[OGL LOG][Preconditioner.H:121] Generate preconditioner BJ MaxBlockSize 1
[OGL LOG][Proc: 0]Uy: init_precond: 2.286 [ms]
[OGL LOG][StoppingCriterion.H:239] Creating stopping criterion with minIter 8 frequency 1
[OGL LOG][Proc: 0]Uy: generate_solver: 0.017 [ms]
[OGL LOG][Proc: 0]Uy: solve: 239.199 [ms]
[OGL LOG][Proc: 0]Uy: copy_x_back: 16.8 [ms]
[OGL LOG][lduLduBase.H:330] 
Statistics:
	Time per iteration: 59799 [mu s]
	Time per residual norm calculation: 1636.000000 [mu s]
	Time per iteration and DOF: 1.185146 [ns]
	Retrieve results bandwidth 2.013000 [GByte/s]
[OGL LOG][Proc: 0]Uy: solve_multi_gpu: 279.529 [ms]
BJcudaGKOBiCGStab:  Solving for Uy, Initial residual = 0.2782502762807247, Final residual = 0.006094892167653514, No Iterations 4
[OGL LOG][Proc: 0]: global_index_init: 1.169 [ms]
[OGL LOG][Proc: 0]Uz_local_coeffs: call_update: 0 [ms]
[OGL LOG][Proc: 0]Uz_non_local_coeffs: call_update: 0 [ms]
[OGL LOG][Proc: 0]Uz: update_local_matrix_data: 218.523 [ms]
[OGL LOG][Proc: 0]Uz: update_non_local_matrix_data: 1.11 [ms]
[OGL LOG][Proc: 0]Uz_matrix: call_update: 4.825 [ms]
[OGL LOG][Proc: 0]Uz_rhs: call_update: 10.63 [ms]
[OGL LOG][Preconditioner.H:121] Generate preconditioner BJ MaxBlockSize 1
[OGL LOG][Proc: 0]Uz: init_precond: 2.52 [ms]
[OGL LOG][StoppingCriterion.H:239] Creating stopping criterion with minIter 2 frequency 1
[OGL LOG][Proc: 0]Uz: generate_solver: 0.017 [ms]
[OGL LOG][Proc: 0]Uz: solve: 222.931 [ms]
[OGL LOG][Proc: 0]Uz: copy_x_back: 16.779 [ms]
[OGL LOG][lduLduBase.H:330] 
Statistics:
	Time per iteration: 111465 [mu s]
	Time per residual norm calculation: 1626.000000 [mu s]
	Time per iteration and DOF: 2.209105 [ns]
	Retrieve results bandwidth 2.015000 [GByte/s]
[OGL LOG][Proc: 0]Uz: solve_multi_gpu: 265.464 [ms]
BJcudaGKOBiCGStab:  Solving for Uz, Initial residual = 0.2502733281653005, Final residual = 0.02493301244934519, No Iterations 2
[OGL LOG][Proc: 0]: global_index_init: 3.687 [ms]
[OGL LOG][Proc: 0]p_local_coeffs: call_update: 0 [ms]
[OGL LOG][Proc: 0]p_non_local_coeffs: call_update: 0 [ms]
[OGL LOG][Proc: 0]p: update_local_matrix_data: 176.237 [ms]
[OGL LOG][Proc: 0]p: update_non_local_matrix_data: 1.165 [ms]
[OGL LOG][Proc: 0]p_matrix: call_update: 4.829 [ms]
[OGL LOG][Proc: 0]p_rhs: call_update: 11.319 [ms]
[OGL LOG][Preconditioner.H:346] Generate preconditioner Multigrid MaxLevels 9 MinCoarseRows 10 ZeroGuess 1 Cycle v
[OGL LOG][Proc: 0]p: init_precond: 954.274 [ms]
[OGL LOG][StoppingCriterion.H:239] Creating stopping criterion with minIter 44 frequency 1
[OGL LOG][Proc: 0]p: generate_solver: 0.008999999999999999 [ms]
[OGL LOG][Proc: 0]p: solve: 2297.458 [ms]
[OGL LOG][Proc: 0]p: copy_x_back: 16.813 [ms]
[OGL LOG][lduLduBase.H:330] 
Statistics:
	Time per iteration: 26407 [mu s]
	Time per residual norm calculation: 1462.000000 [mu s]
	Time per iteration and DOF: 0.523356 [ns]
	Retrieve results bandwidth 2.011000 [GByte/s]
[OGL LOG][Proc: 0]p: solve_multi_gpu: 3319.941 [ms]
MultigridcudaGKOCG:  Solving for p, Initial residual = 0.3202215688263077, Final residual = 0.003113912701722927, No Iterations 87
time step continuity errors : sum local = 0.0222014689499063, global = 0.001055465041841373, cumulative = 0.004988915216194642
[OGL LOG][Proc: 0]: global_index_init: 0.025 [ms]
[OGL LOG][Proc: 0]nuTilda_local_coeffs: call_update: 0 [ms]
[OGL LOG][Proc: 0]nuTilda_non_local_coeffs: call_update: 0 [ms]
[OGL LOG][Proc: 0]nuTilda: update_local_matrix_data: 221.304 [ms]
[OGL LOG][Proc: 0]nuTilda: update_non_local_matrix_data: 1.179 [ms]
[OGL LOG][Proc: 0]nuTilda_matrix: call_update: 5.141 [ms]
[OGL LOG][Proc: 0]nuTilda_rhs: call_update: 10.862 [ms]
[OGL LOG][Preconditioner.H:121] Generate preconditioner BJ MaxBlockSize 1
[OGL LOG][Proc: 0]nuTilda: init_precond: 2.281 [ms]
[OGL LOG][StoppingCriterion.H:239] Creating stopping criterion with minIter 3 frequency 1
[OGL LOG][Proc: 0]nuTilda: generate_solver: 0.017 [ms]
[OGL LOG][Proc: 0]nuTilda: solve: 215.466 [ms]
[OGL LOG][Proc: 0]nuTilda: copy_x_back: 16.862 [ms]
[OGL LOG][lduLduBase.H:330] 
Statistics:
	Time per iteration: 107733 [mu s]
	Time per residual norm calculation: 1849.000000 [mu s]
	Time per iteration and DOF: 2.135141 [ns]
	Retrieve results bandwidth 2.005000 [GByte/s]
[OGL LOG][Proc: 0]nuTilda: solve_multi_gpu: 255.385 [ms]
BJcudaGKOBiCGStab:  Solving for nuTilda, Initial residual = 0.2259530274365051, Final residual = 0.01280797875935869, No Iterations 2
ExecutionTime = 1065.87 s  ClockTime = 1068 s

Time = 4

velocityDampingConstraint velocityDamping damped 958 (0%) of cells, with max limit 300
[OGL LOG][Proc: 0]: global_index_init: 0.304 [ms]
[OGL LOG][Proc: 0]Ux_local_coeffs: call_update: 0 [ms]
[OGL LOG][Proc: 0]Ux_non_local_coeffs: call_update: 0 [ms]
[OGL LOG][Proc: 0]Ux: update_local_matrix_data: 218.485 [ms]
[OGL LOG][Proc: 0]Ux: update_non_local_matrix_data: 1.084 [ms]
[OGL LOG][Proc: 0]Ux_matrix: call_update: 5.42 [ms]
[OGL LOG][Proc: 0]Ux_rhs: call_update: 10.769 [ms]
[OGL LOG][Preconditioner.H:121] Generate preconditioner BJ MaxBlockSize 1
[OGL LOG][Proc: 0]Ux: init_precond: 2.313 [ms]
[OGL LOG][StoppingCriterion.H:239] Creating stopping criterion with minIter 3 frequency 1
[OGL LOG][Proc: 0]Ux: generate_solver: 0.017 [ms]
[OGL LOG][Proc: 0]Ux: solve: 235.91 [ms]
[OGL LOG][Proc: 0]Ux: copy_x_back: 16.687 [ms]
[OGL LOG][lduLduBase.H:330] 
Statistics:
	Time per iteration: 78636 [mu s]
	Time per residual norm calculation: 1849.000000 [mu s]
	Time per iteration and DOF: 1.558473 [ns]
	Retrieve results bandwidth 2.026000 [GByte/s]
[OGL LOG][Proc: 0]Ux: solve_multi_gpu: 276.465 [ms]
BJcudaGKOBiCGStab:  Solving for Ux, Initial residual = 0.04686275665634145, Final residual = 0.003993119424536019, No Iterations 3
[OGL LOG][Proc: 0]: global_index_init: 0.249 [ms]
[OGL LOG][Proc: 0]Uy_local_coeffs: call_update: 0 [ms]
[OGL LOG][Proc: 0]Uy_non_local_coeffs: call_update: 0 [ms]
[OGL LOG][Proc: 0]Uy: update_local_matrix_data: 214.376 [ms]
[OGL LOG][Proc: 0]Uy: update_non_local_matrix_data: 1.056 [ms]
[OGL LOG][Proc: 0]Uy_matrix: call_update: 5.138 [ms]
[OGL LOG][Proc: 0]Uy_rhs: call_update: 10.903 [ms]
[OGL LOG][Preconditioner.H:121] Generate preconditioner BJ MaxBlockSize 1
[OGL LOG][Proc: 0]Uy: init_precond: 2.348 [ms]
[OGL LOG][StoppingCriterion.H:239] Creating stopping criterion with minIter 5 frequency 1
[OGL LOG][Proc: 0]Uy: generate_solver: 0.017 [ms]
[OGL LOG][Proc: 0]Uy: solve: 230.979 [ms]
[OGL LOG][Proc: 0]Uy: copy_x_back: 16.592 [ms]
[OGL LOG][lduLduBase.H:330] 
Statistics:
	Time per iteration: 76993 [mu s]
	Time per residual norm calculation: 1848.000000 [mu s]
	Time per iteration and DOF: 1.525910 [ns]
	Retrieve results bandwidth 2.038000 [GByte/s]
[OGL LOG][Proc: 0]Uy: solve_multi_gpu: 278.955 [ms]
BJcudaGKOBiCGStab:  Solving for Uy, Initial residual = 0.1230601703022483, Final residual = 0.01185223379009601, No Iterations 3
[OGL LOG][Proc: 0]: global_index_init: 0.211 [ms]
[OGL LOG][Proc: 0]Uz_local_coeffs: call_update: 0 [ms]
[OGL LOG][Proc: 0]Uz_non_local_coeffs: call_update: 0 [ms]
[OGL LOG][Proc: 0]Uz: update_local_matrix_data: 216.411 [ms]
[OGL LOG][Proc: 0]Uz: update_non_local_matrix_data: 1.057 [ms]
[OGL LOG][Proc: 0]Uz_matrix: call_update: 4.998 [ms]
[OGL LOG][Proc: 0]Uz_rhs: call_update: 10.949 [ms]
[OGL LOG][Preconditioner.H:121] Generate preconditioner BJ MaxBlockSize 1
[OGL LOG][Proc: 0]Uz: init_precond: 2.295 [ms]
[OGL LOG][StoppingCriterion.H:239] Creating stopping criterion with minIter 3 frequency 1
[OGL LOG][Proc: 0]Uz: generate_solver: 0.017 [ms]
[OGL LOG][Proc: 0]Uz: solve: 226.211 [ms]
[OGL LOG][Proc: 0]Uz: copy_x_back: 16.693 [ms]
[OGL LOG][lduLduBase.H:330] 
Statistics:
	Time per iteration: 75403 [mu s]
	Time per residual norm calculation: 1768.000000 [mu s]
	Time per iteration and DOF: 1.494399 [ns]
	Retrieve results bandwidth 2.026000 [GByte/s]
[OGL LOG][Proc: 0]Uz: solve_multi_gpu: 271.938 [ms]
BJcudaGKOBiCGStab:  Solving for Uz, Initial residual = 0.1049810239136398, Final residual = 0.01002854620435249, No Iterations 3
[OGL LOG][Proc: 0]: global_index_init: 0.061 [ms]
[OGL LOG][Proc: 0]p_local_coeffs: call_update: 0 [ms]
[OGL LOG][Proc: 0]p_non_local_coeffs: call_update: 0 [ms]
[OGL LOG][Proc: 0]p: update_local_matrix_data: 172.235 [ms]
[OGL LOG][Proc: 0]p: update_non_local_matrix_data: 1.027 [ms]
[OGL LOG][Proc: 0]p_matrix: call_update: 4.906 [ms]
[OGL LOG][Proc: 0]p_rhs: call_update: 11.113 [ms]
[OGL LOG][Preconditioner.H:346] Generate preconditioner Multigrid MaxLevels 9 MinCoarseRows 10 ZeroGuess 1 Cycle v
[OGL LOG][Proc: 0]p: init_precond: 926.157 [ms]
[OGL LOG][StoppingCriterion.H:239] Creating stopping criterion with minIter 52 frequency 1
[OGL LOG][Proc: 0]p: generate_solver: 0.01 [ms]
[OGL LOG][Proc: 0]p: solve: 1463.504 [ms]
[OGL LOG][Proc: 0]p: copy_x_back: 16.97 [ms]
[OGL LOG][lduLduBase.H:330] 
Statistics:
	Time per iteration: 27613 [mu s]
	Time per residual norm calculation: 1313.000000 [mu s]
	Time per iteration and DOF: 0.547257 [ns]
	Retrieve results bandwidth 1.993000 [GByte/s]
[OGL LOG][Proc: 0]p: solve_multi_gpu: 2455.48 [ms]
MultigridcudaGKOCG:  Solving for p, Initial residual = 0.4425311005642293, Final residual = 0.0006994672297836109, No Iterations 53
time step continuity errors : sum local = 0.01076023523309382, global = -0.001999404436190413, cumulative = 0.00298951078000423
[OGL LOG][Proc: 0]: global_index_init: 0.022 [ms]
[OGL LOG][Proc: 0]nuTilda_local_coeffs: call_update: 0 [ms]
[OGL LOG][Proc: 0]nuTilda_non_local_coeffs: call_update: 0 [ms]
[OGL LOG][Proc: 0]nuTilda: update_local_matrix_data: 215.802 [ms]
[OGL LOG][Proc: 0]nuTilda: update_non_local_matrix_data: 1.022 [ms]
[OGL LOG][Proc: 0]nuTilda_matrix: call_update: 4.942 [ms]
[OGL LOG][Proc: 0]nuTilda_rhs: call_update: 10.887 [ms]
[OGL LOG][Preconditioner.H:121] Generate preconditioner BJ MaxBlockSize 1
[OGL LOG][Proc: 0]nuTilda: init_precond: 2.349 [ms]
[OGL LOG][StoppingCriterion.H:239] Creating stopping criterion with minIter 2 frequency 1
[OGL LOG][Proc: 0]nuTilda: generate_solver: 0.018 [ms]
[OGL LOG][Proc: 0]nuTilda: solve: 224.031 [ms]
[OGL LOG][Proc: 0]nuTilda: copy_x_back: 16.608 [ms]
[OGL LOG][lduLduBase.H:330] 
Statistics:
	Time per iteration: 112015 [mu s]
	Time per residual norm calculation: 1279.000000 [mu s]
	Time per iteration and DOF: 2.220005 [ns]
	Retrieve results bandwidth 2.036000 [GByte/s]
[OGL LOG][Proc: 0]nuTilda: solve_multi_gpu: 270.948 [ms]
BJcudaGKOBiCGStab:  Solving for nuTilda, Initial residual = 0.1384824796443764, Final residual = 0.008811982053757392, No Iterations 2
ExecutionTime = 1086.72 s  ClockTime = 1089 s

Time = 5

velocityDampingConstraint velocityDamping damped 15141 (0.03%) of cells, with max limit 300
[OGL LOG][Proc: 0]: global_index_init: 0.238 [ms]
[OGL LOG][Proc: 0]Ux_local_coeffs: call_update: 0 [ms]
[OGL LOG][Proc: 0]Ux_non_local_coeffs: call_update: 0 [ms]
[OGL LOG][Proc: 0]Ux: update_local_matrix_data: 220.098 [ms]
[OGL LOG][Proc: 0]Ux: update_non_local_matrix_data: 1.121 [ms]
[OGL LOG][Proc: 0]Ux_matrix: call_update: 4.724 [ms]
[OGL LOG][Proc: 0]Ux_rhs: call_update: 10.923 [ms]
[OGL LOG][Preconditioner.H:121] Generate preconditioner BJ MaxBlockSize 1
[OGL LOG][Proc: 0]Ux: init_precond: 2.254 [ms]
[OGL LOG][StoppingCriterion.H:239] Creating stopping criterion with minIter 4 frequency 1
[OGL LOG][Proc: 0]Ux: generate_solver: 0.039 [ms]
[OGL LOG][Proc: 0]Ux: solve: 224.222 [ms]
[OGL LOG][Proc: 0]Ux: copy_x_back: 16.509 [ms]
[OGL LOG][lduLduBase.H:330] 
Statistics:
	Time per iteration: 112111 [mu s]
	Time per residual norm calculation: 1766.000000 [mu s]
	Time per iteration and DOF: 2.221908 [ns]
	Retrieve results bandwidth 2.048000 [GByte/s]
[OGL LOG][Proc: 0]Ux: solve_multi_gpu: 265.775 [ms]
BJcudaGKOBiCGStab:  Solving for Ux, Initial residual = 0.3284347528927747, Final residual = 0.02731047857535594, No Iterations 2
[OGL LOG][Proc: 0]: global_index_init: 0.232 [ms]
[OGL LOG][Proc: 0]Uy_local_coeffs: call_update: 0 [ms]
[OGL LOG][Proc: 0]Uy_non_local_coeffs: call_update: 0 [ms]
[OGL LOG][Proc: 0]Uy: update_local_matrix_data: 217.684 [ms]
[OGL LOG][Proc: 0]Uy: update_non_local_matrix_data: 1.041 [ms]
[OGL LOG][Proc: 0]Uy_matrix: call_update: 4.646 [ms]
[OGL LOG][Proc: 0]Uy_rhs: call_update: 10.958 [ms]
[OGL LOG][Preconditioner.H:121] Generate preconditioner BJ MaxBlockSize 1
[OGL LOG][Proc: 0]Uy: init_precond: 2.274 [ms]
[OGL LOG][StoppingCriterion.H:239] Creating stopping criterion with minIter 4 frequency 1
[OGL LOG][Proc: 0]Uy: generate_solver: 0.016 [ms]
[OGL LOG][Proc: 0]Uy: solve: 230.62 [ms]
[OGL LOG][Proc: 0]Uy: copy_x_back: 16.906 [ms]
[OGL LOG][lduLduBase.H:330] 
Statistics:
	Time per iteration: 76873 [mu s]
	Time per residual norm calculation: 1647.000000 [mu s]
	Time per iteration and DOF: 1.523532 [ns]
	Retrieve results bandwidth 2.000000 [GByte/s]
[OGL LOG][Proc: 0]Uy: solve_multi_gpu: 274.526 [ms]
BJcudaGKOBiCGStab:  Solving for Uy, Initial residual = 0.4457830928256201, Final residual = 0.03326128296553268, No Iterations 3
[OGL LOG][Proc: 0]: global_index_init: 0.218 [ms]
[OGL LOG][Proc: 0]Uz_local_coeffs: call_update: 0 [ms]
[OGL LOG][Proc: 0]Uz_non_local_coeffs: call_update: 0 [ms]
[OGL LOG][Proc: 0]Uz: update_local_matrix_data: 222.458 [ms]
[OGL LOG][Proc: 0]Uz: update_non_local_matrix_data: 1.054 [ms]
[OGL LOG][Proc: 0]Uz_matrix: call_update: 3.449 [ms]
[OGL LOG][Proc: 0]Uz_rhs: call_update: 12.006 [ms]
[OGL LOG][Preconditioner.H:121] Generate preconditioner BJ MaxBlockSize 1
[OGL LOG][Proc: 0]Uz: init_precond: 2.395 [ms]
[OGL LOG][StoppingCriterion.H:239] Creating stopping criterion with minIter 3 frequency 1
[OGL LOG][Proc: 0]Uz: generate_solver: 0.018 [ms]
[OGL LOG][Proc: 0]Uz: solve: 225.231 [ms]
[OGL LOG][Proc: 0]Uz: copy_x_back: 16.618 [ms]
[OGL LOG][lduLduBase.H:330] 
Statistics:
	Time per iteration: 75077 [mu s]
	Time per residual norm calculation: 1599.000000 [mu s]
	Time per iteration and DOF: 1.487938 [ns]
	Retrieve results bandwidth 2.035000 [GByte/s]
[OGL LOG][Proc: 0]Uz: solve_multi_gpu: 264.164 [ms]
BJcudaGKOBiCGStab:  Solving for Uz, Initial residual = 0.594216516145864, Final residual = 0.05686996553462544, No Iterations 3
[OGL LOG][Proc: 0]: global_index_init: 0.02 [ms]
[OGL LOG][Proc: 0]p_local_coeffs: call_update: 0 [ms]
[OGL LOG][Proc: 0]p_non_local_coeffs: call_update: 0 [ms]
[OGL LOG][Proc: 0]p: update_local_matrix_data: 168.567 [ms]
[OGL LOG][Proc: 0]p: update_non_local_matrix_data: 1.127 [ms]
[OGL LOG][Proc: 0]p_matrix: call_update: 4.911 [ms]
[OGL LOG][Proc: 0]p_rhs: call_update: 11.022 [ms]
[OGL LOG][Preconditioner.H:346] Generate preconditioner Multigrid MaxLevels 9 MinCoarseRows 10 ZeroGuess 1 Cycle v
[OGL LOG][Proc: 0]p: init_precond: 945.083 [ms]
[OGL LOG][StoppingCriterion.H:239] Creating stopping criterion with minIter 31 frequency 1
[OGL LOG][Proc: 0]p: generate_solver: 0.008999999999999999 [ms]
[OGL LOG][Proc: 0]p: solve: 1605.008 [ms]
[OGL LOG][Proc: 0]p: copy_x_back: 16.817 [ms]
[OGL LOG][lduLduBase.H:330] 
Statistics:
	Time per iteration: 27203 [mu s]
	Time per residual norm calculation: 1023.000000 [mu s]
	Time per iteration and DOF: 0.539131 [ns]
	Retrieve results bandwidth 2.011000 [GByte/s]
[OGL LOG][Proc: 0]p: solve_multi_gpu: 2619.721 [ms]
MultigridcudaGKOCG:  Solving for p, Initial residual = 0.2449789786145, Final residual = 0.002421781046585615, No Iterations 59
time step continuity errors : sum local = 0.03806706299667328, global = -0.006608833708228154, cumulative = -0.003619322928223924
[OGL LOG][Proc: 0]: global_index_init: 0.023 [ms]
[OGL LOG][Proc: 0]nuTilda_local_coeffs: call_update: 0 [ms]
[OGL LOG][Proc: 0]nuTilda_non_local_coeffs: call_update: 0 [ms]
[OGL LOG][Proc: 0]nuTilda: update_local_matrix_data: 219.524 [ms]
[OGL LOG][Proc: 0]nuTilda: update_non_local_matrix_data: 1.097 [ms]
[OGL LOG][Proc: 0]nuTilda_matrix: call_update: 4.681 [ms]
[OGL LOG][Proc: 0]nuTilda_rhs: call_update: 10.883 [ms]
[OGL LOG][Preconditioner.H:121] Generate preconditioner BJ MaxBlockSize 1
[OGL LOG][Proc: 0]nuTilda: init_precond: 2.346 [ms]
[OGL LOG][StoppingCriterion.H:239] Creating stopping criterion with minIter 3 frequency 1
[OGL LOG][Proc: 0]nuTilda: generate_solver: 0.018 [ms]
[OGL LOG][Proc: 0]nuTilda: solve: 222.983 [ms]
[OGL LOG][Proc: 0]nuTilda: copy_x_back: 17.197 [ms]
[OGL LOG][lduLduBase.H:330] 
Statistics:
	Time per iteration: 111491 [mu s]
	Time per residual norm calculation: 1845.000000 [mu s]
	Time per iteration and DOF: 2.209620 [ns]
	Retrieve results bandwidth 1.966000 [GByte/s]
[OGL LOG][Proc: 0]nuTilda: solve_multi_gpu: 263.119 [ms]
BJcudaGKOBiCGStab:  Solving for nuTilda, Initial residual = 0.09143280926764104, Final residual = 0.004983152235089261, No Iterations 2
ExecutionTime = 1107.84 s  ClockTime = 1110 s

Time = 6

velocityDampingConstraint velocityDamping damped 2286 (0%) of cells, with max limit 300
[OGL LOG][Proc: 0]: global_index_init: 0.209 [ms]
[OGL LOG][Proc: 0]Ux_local_coeffs: call_update: 0 [ms]
[OGL LOG][Proc: 0]Ux_non_local_coeffs: call_update: 0 [ms]
[OGL LOG][Proc: 0]Ux: update_local_matrix_data: 223.689 [ms]
[OGL LOG][Proc: 0]Ux: update_non_local_matrix_data: 1.155 [ms]
[OGL LOG][Proc: 0]Ux_matrix: call_update: 5.167 [ms]
[OGL LOG][Proc: 0]Ux_rhs: call_update: 10.816 [ms]
[OGL LOG][Preconditioner.H:121] Generate preconditioner BJ MaxBlockSize 1
[OGL LOG][Proc: 0]Ux: init_precond: 2.456 [ms]
[OGL LOG][StoppingCriterion.H:239] Creating stopping criterion with minIter 3 frequency 1
[OGL LOG][Proc: 0]Ux: generate_solver: 0.017 [ms]
[OGL LOG][Proc: 0]Ux: solve: 234.678 [ms]
[OGL LOG][Proc: 0]Ux: copy_x_back: 16.621 [ms]
[OGL LOG][lduLduBase.H:330] 
Statistics:
	Time per iteration: 78226 [mu s]
	Time per residual norm calculation: 1838.000000 [mu s]
	Time per iteration and DOF: 1.550347 [ns]
	Retrieve results bandwidth 2.034000 [GByte/s]
[OGL LOG][Proc: 0]Ux: solve_multi_gpu: 274.119 [ms]
BJcudaGKOBiCGStab:  Solving for Ux, Initial residual = 0.2327262035031568, Final residual = 0.021232626106597, No Iterations 3
[OGL LOG][Proc: 0]: global_index_init: 0.219 [ms]
[OGL LOG][Proc: 0]Uy_local_coeffs: call_update: 0 [ms]
[OGL LOG][Proc: 0]Uy_non_local_coeffs: call_update: 0 [ms]
[OGL LOG][Proc: 0]Uy: update_local_matrix_data: 218.03 [ms]
[OGL LOG][Proc: 0]Uy: update_non_local_matrix_data: 1.129 [ms]
[OGL LOG][Proc: 0]Uy_matrix: call_update: 5.049 [ms]
[OGL LOG][Proc: 0]Uy_rhs: call_update: 10.895 [ms]
[OGL LOG][Preconditioner.H:121] Generate preconditioner BJ MaxBlockSize 1
[OGL LOG][Proc: 0]Uy: init_precond: 2.345 [ms]
[OGL LOG][StoppingCriterion.H:239] Creating stopping criterion with minIter 4 frequency 1
[OGL LOG][Proc: 0]Uy: generate_solver: 0.017 [ms]
[OGL LOG][Proc: 0]Uy: solve: 250.015 [ms]
[OGL LOG][Proc: 0]Uy: copy_x_back: 16.593 [ms]
[OGL LOG][lduLduBase.H:330] 
Statistics:
	Time per iteration: 50003 [mu s]
	Time per residual norm calculation: 1784.000000 [mu s]
	Time per iteration and DOF: 0.991001 [ns]
	Retrieve results bandwidth 2.038000 [GByte/s]
[OGL LOG][Proc: 0]Uy: solve_multi_gpu: 294.642 [ms]
BJcudaGKOBiCGStab:  Solving for Uy, Initial residual = 0.3842294459888634, Final residual = 0.005670480222979475, No Iterations 5
[OGL LOG][Proc: 0]: global_index_init: 0.204 [ms]
[OGL LOG][Proc: 0]Uz_local_coeffs: call_update: 0 [ms]
[OGL LOG][Proc: 0]Uz_non_local_coeffs: call_update: 0 [ms]
[OGL LOG][Proc: 0]Uz: update_local_matrix_data: 223.837 [ms]
[OGL LOG][Proc: 0]Uz: update_non_local_matrix_data: 1.142 [ms]
[OGL LOG][Proc: 0]Uz_matrix: call_update: 4.937 [ms]
[OGL LOG][Proc: 0]Uz_rhs: call_update: 10.761 [ms]
[OGL LOG][Preconditioner.H:121] Generate preconditioner BJ MaxBlockSize 1
[OGL LOG][Proc: 0]Uz: init_precond: 2.269 [ms]
[OGL LOG][StoppingCriterion.H:239] Creating stopping criterion with minIter 3 frequency 1
[OGL LOG][Proc: 0]Uz: generate_solver: 0.017 [ms]
[OGL LOG][Proc: 0]Uz: solve: 232.94 [ms]
[OGL LOG][Proc: 0]Uz: copy_x_back: 16.828 [ms]
[OGL LOG][lduLduBase.H:330] 
Statistics:
	Time per iteration: 77646 [mu s]
	Time per residual norm calculation: 1257.000000 [mu s]
	Time per iteration and DOF: 1.538852 [ns]
	Retrieve results bandwidth 2.009000 [GByte/s]
[OGL LOG][Proc: 0]Uz: solve_multi_gpu: 272.201 [ms]
BJcudaGKOBiCGStab:  Solving for Uz, Initial residual = 0.3668086153559229, Final residual = 0.0306756342961102, No Iterations 3
[OGL LOG][Proc: 0]: global_index_init: 3.647 [ms]
[OGL LOG][Proc: 0]p_local_coeffs: call_update: 0 [ms]
[OGL LOG][Proc: 0]p_non_local_coeffs: call_update: 0 [ms]
[OGL LOG][Proc: 0]p: update_local_matrix_data: 186.258 [ms]
[OGL LOG][Proc: 0]p: update_non_local_matrix_data: 1.094 [ms]
[OGL LOG][Proc: 0]p_matrix: call_update: 7.756 [ms]
[OGL LOG][Proc: 0]p_rhs: call_update: 13.586 [ms]
[OGL LOG][Preconditioner.H:346] Generate preconditioner Multigrid MaxLevels 9 MinCoarseRows 10 ZeroGuess 1 Cycle v
[OGL LOG][Proc: 0]p: init_precond: 969.097 [ms]
[OGL LOG][StoppingCriterion.H:239] Creating stopping criterion with minIter 35 frequency 1
[OGL LOG][Proc: 0]p: generate_solver: 0.008999999999999999 [ms]
[OGL LOG][Proc: 0]p: solve: 2174.118 [ms]
[OGL LOG][Proc: 0]p: copy_x_back: 16.853 [ms]
[OGL LOG][lduLduBase.H:330] 
Statistics:
	Time per iteration: 26513 [mu s]
	Time per residual norm calculation: 1469.000000 [mu s]
	Time per iteration and DOF: 0.525456 [ns]
	Retrieve results bandwidth 2.006000 [GByte/s]
[OGL LOG][Proc: 0]p: solve_multi_gpu: 3215.933 [ms]
MultigridcudaGKOCG:  Solving for p, Initial residual = 0.5935067887414801, Final residual = 0.005593319905228065, No Iterations 82
time step continuity errors : sum local = 0.03918702159699416, global = -0.00124220558697701, cumulative = -0.004861528515200934
[OGL LOG][Proc: 0]: global_index_init: 0.023 [ms]
[OGL LOG][Proc: 0]nuTilda_local_coeffs: call_update: 0 [ms]
[OGL LOG][Proc: 0]nuTilda_non_local_coeffs: call_update: 0 [ms]
[OGL LOG][Proc: 0]nuTilda: update_local_matrix_data: 217.901 [ms]
[OGL LOG][Proc: 0]nuTilda: update_non_local_matrix_data: 1.025 [ms]
[OGL LOG][Proc: 0]nuTilda_matrix: call_update: 4.876 [ms]
[OGL LOG][Proc: 0]nuTilda_rhs: call_update: 11.018 [ms]
[OGL LOG][Preconditioner.H:121] Generate preconditioner BJ MaxBlockSize 1
[OGL LOG][Proc: 0]nuTilda: init_precond: 2.28 [ms]
[OGL LOG][StoppingCriterion.H:239] Creating stopping criterion with minIter 3 frequency 1
[OGL LOG][Proc: 0]nuTilda: generate_solver: 0.017 [ms]
[OGL LOG][Proc: 0]nuTilda: solve: 222.732 [ms]
[OGL LOG][Proc: 0]nuTilda: copy_x_back: 17.065 [ms]
[OGL LOG][lduLduBase.H:330] 
Statistics:
	Time per iteration: 111366 [mu s]
	Time per residual norm calculation: 1847.000000 [mu s]
	Time per iteration and DOF: 2.207143 [ns]
	Retrieve results bandwidth 1.981000 [GByte/s]
[OGL LOG][Proc: 0]nuTilda: solve_multi_gpu: 266.141 [ms]
BJcudaGKOBiCGStab:  Solving for nuTilda, Initial residual = 0.06241661576135225, Final residual = 0.003728205065836177, No Iterations 2
ExecutionTime = 1129.55 s  ClockTime = 1132 s

Time = 7

velocityDampingConstraint velocityDamping damped 4608 (0.01%) of cells, with max limit 300
[OGL LOG][Proc: 0]: global_index_init: 0.254 [ms]
[OGL LOG][Proc: 0]Ux_local_coeffs: call_update: 0 [ms]
[OGL LOG][Proc: 0]Ux_non_local_coeffs: call_update: 0 [ms]
[OGL LOG][Proc: 0]Ux: update_local_matrix_data: 219.381 [ms]
[OGL LOG][Proc: 0]Ux: update_non_local_matrix_data: 1.074 [ms]
[OGL LOG][Proc: 0]Ux_matrix: call_update: 5.526 [ms]
[OGL LOG][Proc: 0]Ux_rhs: call_update: 10.811 [ms]
[OGL LOG][Preconditioner.H:121] Generate preconditioner BJ MaxBlockSize 1
[OGL LOG][Proc: 0]Ux: init_precond: 2.212 [ms]
[OGL LOG][StoppingCriterion.H:239] Creating stopping criterion with minIter 4 frequency 1
[OGL LOG][Proc: 0]Ux: generate_solver: 0.024 [ms]
[OGL LOG][Proc: 0]Ux: solve: 234.858 [ms]
[OGL LOG][Proc: 0]Ux: copy_x_back: 16.584 [ms]
[OGL LOG][lduLduBase.H:330] 
Statistics:
	Time per iteration: 78286 [mu s]
	Time per residual norm calculation: 1465.000000 [mu s]
	Time per iteration and DOF: 1.551536 [ns]
	Retrieve results bandwidth 2.039000 [GByte/s]
[OGL LOG][Proc: 0]Ux: solve_multi_gpu: 277.553 [ms]
BJcudaGKOBiCGStab:  Solving for Ux, Initial residual = 0.2590524981084521, Final residual = 0.0200754409075885, No Iterations 3
[OGL LOG][Proc: 0]: global_index_init: 0.22 [ms]
[OGL LOG][Proc: 0]Uy_local_coeffs: call_update: 0 [ms]
[OGL LOG][Proc: 0]Uy_non_local_coeffs: call_update: 0 [ms]
[OGL LOG][Proc: 0]Uy: update_local_matrix_data: 218.179 [ms]
[OGL LOG][Proc: 0]Uy: update_non_local_matrix_data: 1.119 [ms]
[OGL LOG][Proc: 0]Uy_matrix: call_update: 4.852 [ms]
[OGL LOG][Proc: 0]Uy_rhs: call_update: 10.838 [ms]
[OGL LOG][Preconditioner.H:121] Generate preconditioner BJ MaxBlockSize 1
[OGL LOG][Proc: 0]Uy: init_precond: 2.338 [ms]
[OGL LOG][StoppingCriterion.H:239] Creating stopping criterion with minIter 6 frequency 1
[OGL LOG][Proc: 0]Uy: generate_solver: 0.018 [ms]
[OGL LOG][Proc: 0]Uy: solve: 235.283 [ms]
[OGL LOG][Proc: 0]Uy: copy_x_back: 16.692 [ms]
[OGL LOG][lduLduBase.H:330] 
Statistics:
	Time per iteration: 58820 [mu s]
	Time per residual norm calculation: 1434.000000 [mu s]
	Time per iteration and DOF: 1.165743 [ns]
	Retrieve results bandwidth 2.026000 [GByte/s]
[OGL LOG][Proc: 0]Uy: solve_multi_gpu: 279.031 [ms]
BJcudaGKOBiCGStab:  Solving for Uy, Initial residual = 0.3710092264553994, Final residual = 0.02225195002980429, No Iterations 4
[OGL LOG][Proc: 0]: global_index_init: 0.255 [ms]
[OGL LOG][Proc: 0]Uz_local_coeffs: call_update: 0 [ms]
[OGL LOG][Proc: 0]Uz_non_local_coeffs: call_update: 0 [ms]
[OGL LOG][Proc: 0]Uz: update_local_matrix_data: 220.762 [ms]
[OGL LOG][Proc: 0]Uz: update_non_local_matrix_data: 1.102 [ms]
[OGL LOG][Proc: 0]Uz_matrix: call_update: 4.919 [ms]
[OGL LOG][Proc: 0]Uz_rhs: call_update: 27.789 [ms]
[OGL LOG][Preconditioner.H:121] Generate preconditioner BJ MaxBlockSize 1
[OGL LOG][Proc: 0]Uz: init_precond: 2.388 [ms]
[OGL LOG][StoppingCriterion.H:239] Creating stopping criterion with minIter 4 frequency 1
[OGL LOG][Proc: 0]Uz: generate_solver: 0.017 [ms]
[OGL LOG][Proc: 0]Uz: solve: 244.155 [ms]
[OGL LOG][Proc: 0]Uz: copy_x_back: 16.54 [ms]
[OGL LOG][lduLduBase.H:330] 
Statistics:
	Time per iteration: 61038 [mu s]
	Time per residual norm calculation: 1751.000000 [mu s]
	Time per iteration and DOF: 1.209701 [ns]
	Retrieve results bandwidth 2.044000 [GByte/s]
[OGL LOG][Proc: 0]Uz: solve_multi_gpu: 307.77 [ms]
BJcudaGKOBiCGStab:  Solving for Uz, Initial residual = 0.1999954377990357, Final residual = 0.01684540731201676, No Iterations 4
[OGL LOG][Proc: 0]: global_index_init: 3.288 [ms]
[OGL LOG][Proc: 0]p_local_coeffs: call_update: 0 [ms]
[OGL LOG][Proc: 0]p_non_local_coeffs: call_update: 0 [ms]
[OGL LOG][Proc: 0]p: update_local_matrix_data: 174.284 [ms]
[OGL LOG][Proc: 0]p: update_non_local_matrix_data: 1.077 [ms]
[OGL LOG][Proc: 0]p_matrix: call_update: 3.51 [ms]
[OGL LOG][Proc: 0]p_rhs: call_update: 19.927 [ms]
[OGL LOG][Preconditioner.H:346] Generate preconditioner Multigrid MaxLevels 9 MinCoarseRows 10 ZeroGuess 1 Cycle v
[OGL LOG][Proc: 0]p: init_precond: 947.402 [ms]
[OGL LOG][StoppingCriterion.H:239] Creating stopping criterion with minIter 49 frequency 1
[OGL LOG][Proc: 0]p: generate_solver: 0.01 [ms]
[OGL LOG][Proc: 0]p: solve: 1382.556 [ms]
[OGL LOG][Proc: 0]p: copy_x_back: 16.568 [ms]
[OGL LOG][lduLduBase.H:330] 
Statistics:
	Time per iteration: 27651 [mu s]
	Time per residual norm calculation: 1464.000000 [mu s]
	Time per iteration and DOF: 0.548010 [ns]
	Retrieve results bandwidth 2.041000 [GByte/s]
[OGL LOG][Proc: 0]p: solve_multi_gpu: 2404.054 [ms]
MultigridcudaGKOCG:  Solving for p, Initial residual = 0.2003228638718733, Final residual = 0.001296981688371436, No Iterations 50
time step continuity errors : sum local = 0.01413665018179824, global = 0.001399900590456587, cumulative = -0.003461627924744348
[OGL LOG][Proc: 0]: global_index_init: 0.026 [ms]
[OGL LOG][Proc: 0]nuTilda_local_coeffs: call_update: 0 [ms]
[OGL LOG][Proc: 0]nuTilda_non_local_coeffs: call_update: 0 [ms]
[OGL LOG][Proc: 0]nuTilda: update_local_matrix_data: 220.939 [ms]
[OGL LOG][Proc: 0]nuTilda: update_non_local_matrix_data: 1.139 [ms]
[OGL LOG][Proc: 0]nuTilda_matrix: call_update: 3.531 [ms]
[OGL LOG][Proc: 0]nuTilda_rhs: call_update: 12.065 [ms]
[OGL LOG][Preconditioner.H:121] Generate preconditioner BJ MaxBlockSize 1
[OGL LOG][Proc: 0]nuTilda: init_precond: 2.631 [ms]
[OGL LOG][StoppingCriterion.H:239] Creating stopping criterion with minIter 3 frequency 1
[OGL LOG][Proc: 0]nuTilda: generate_solver: 0.02 [ms]
[OGL LOG][Proc: 0]nuTilda: solve: 223.998 [ms]
[OGL LOG][Proc: 0]nuTilda: copy_x_back: 16.599 [ms]
[OGL LOG][lduLduBase.H:330] 
Statistics:
	Time per iteration: 111999 [mu s]
	Time per residual norm calculation: 1850.000000 [mu s]
	Time per iteration and DOF: 2.219688 [ns]
	Retrieve results bandwidth 2.037000 [GByte/s]
[OGL LOG][Proc: 0]nuTilda: solve_multi_gpu: 263.868 [ms]
BJcudaGKOBiCGStab:  Solving for nuTilda, Initial residual = 0.05043117561051217, Final residual = 0.003042661422388345, No Iterations 2
ExecutionTime = 1150.68 s  ClockTime = 1153 s

Time = 8

velocityDampingConstraint velocityDamping damped 3002 (0.01%) of cells, with max limit 300
[OGL LOG][Proc: 0]: global_index_init: 0.274 [ms]
[OGL LOG][Proc: 0]Ux_local_coeffs: call_update: 0 [ms]
[OGL LOG][Proc: 0]Ux_non_local_coeffs: call_update: 0 [ms]
[OGL LOG][Proc: 0]Ux: update_local_matrix_data: 215.321 [ms]
[OGL LOG][Proc: 0]Ux: update_non_local_matrix_data: 1.133 [ms]
[OGL LOG][Proc: 0]Ux_matrix: call_update: 4.751 [ms]
[OGL LOG][Proc: 0]Ux_rhs: call_update: 11.221 [ms]
[OGL LOG][Preconditioner.H:121] Generate preconditioner BJ MaxBlockSize 1
[OGL LOG][Proc: 0]Ux: init_precond: 2.469 [ms]
[OGL LOG][StoppingCriterion.H:239] Creating stopping criterion with minIter 4 frequency 1
[OGL LOG][Proc: 0]Ux: generate_solver: 0.018 [ms]
[OGL LOG][Proc: 0]Ux: solve: 259.749 [ms]
[OGL LOG][Proc: 0]Ux: copy_x_back: 16.822 [ms]
[OGL LOG][lduLduBase.H:330] 
Statistics:
	Time per iteration: 86583 [mu s]
	Time per residual norm calculation: 1427.000000 [mu s]
	Time per iteration and DOF: 1.715973 [ns]
	Retrieve results bandwidth 2.010000 [GByte/s]
[OGL LOG][Proc: 0]Ux: solve_multi_gpu: 304.997 [ms]
BJcudaGKOBiCGStab:  Solving for Ux, Initial residual = 0.2550657359135985, Final residual = 0.01821183154040669, No Iterations 3
[OGL LOG][Proc: 0]: global_index_init: 0.251 [ms]
[OGL LOG][Proc: 0]Uy_local_coeffs: call_update: 0 [ms]
[OGL LOG][Proc: 0]Uy_non_local_coeffs: call_update: 0 [ms]
[OGL LOG][Proc: 0]Uy: update_local_matrix_data: 213.922 [ms]
[OGL LOG][Proc: 0]Uy: update_non_local_matrix_data: 1.083 [ms]
[OGL LOG][Proc: 0]Uy_matrix: call_update: 5.064 [ms]
[OGL LOG][Proc: 0]Uy_rhs: call_update: 11.117 [ms]
[OGL LOG][Preconditioner.H:121] Generate preconditioner BJ MaxBlockSize 1
[OGL LOG][Proc: 0]Uy: init_precond: 2.217 [ms]
[OGL LOG][StoppingCriterion.H:239] Creating stopping criterion with minIter 4 frequency 1
[OGL LOG][Proc: 0]Uy: generate_solver: 0.017 [ms]
[OGL LOG][Proc: 0]Uy: solve: 233.594 [ms]
[OGL LOG][Proc: 0]Uy: copy_x_back: 16.614 [ms]
[OGL LOG][lduLduBase.H:330] 
Statistics:
	Time per iteration: 77864 [mu s]
	Time per residual norm calculation: 1837.000000 [mu s]
	Time per iteration and DOF: 1.543173 [ns]
	Retrieve results bandwidth 2.035000 [GByte/s]
[OGL LOG][Proc: 0]Uy: solve_multi_gpu: 280.445 [ms]
BJcudaGKOBiCGStab:  Solving for Uy, Initial residual = 0.3821757133519316, Final residual = 0.02481220801118575, No Iterations 3
[OGL LOG][Proc: 0]: global_index_init: 0.226 [ms]
[OGL LOG][Proc: 0]Uz_local_coeffs: call_update: 0 [ms]
[OGL LOG][Proc: 0]Uz_non_local_coeffs: call_update: 0 [ms]
[OGL LOG][Proc: 0]Uz: update_local_matrix_data: 218.678 [ms]
[OGL LOG][Proc: 0]Uz: update_non_local_matrix_data: 1.158 [ms]
[OGL LOG][Proc: 0]Uz_matrix: call_update: 5.417 [ms]
[OGL LOG][Proc: 0]Uz_rhs: call_update: 10.747 [ms]
[OGL LOG][Preconditioner.H:121] Generate preconditioner BJ MaxBlockSize 1
[OGL LOG][Proc: 0]Uz: init_precond: 2.406 [ms]
[OGL LOG][StoppingCriterion.H:239] Creating stopping criterion with minIter 5 frequency 1
[OGL LOG][Proc: 0]Uz: generate_solver: 0.018 [ms]
[OGL LOG][Proc: 0]Uz: solve: 237.139 [ms]
[OGL LOG][Proc: 0]Uz: copy_x_back: 16.794 [ms]
[OGL LOG][lduLduBase.H:330] 
Statistics:
	Time per iteration: 59284 [mu s]
	Time per residual norm calculation: 1550.000000 [mu s]
	Time per iteration and DOF: 1.174939 [ns]
	Retrieve results bandwidth 2.013000 [GByte/s]
[OGL LOG][Proc: 0]Uz: solve_multi_gpu: 281.526 [ms]
BJcudaGKOBiCGStab:  Solving for Uz, Initial residual = 0.2296366240964018, Final residual = 0.008565770781466692, No Iterations 4
[OGL LOG][Proc: 0]: global_index_init: 3.535 [ms]
[OGL LOG][Proc: 0]p_local_coeffs: call_update: 0 [ms]
[OGL LOG][Proc: 0]p_non_local_coeffs: call_update: 0 [ms]
[OGL LOG][Proc: 0]p: update_local_matrix_data: 172.422 [ms]
[OGL LOG][Proc: 0]p: update_non_local_matrix_data: 1.163 [ms]
[OGL LOG][Proc: 0]p_matrix: call_update: 4.855 [ms]
[OGL LOG][Proc: 0]p_rhs: call_update: 11.065 [ms]
[OGL LOG][Preconditioner.H:346] Generate preconditioner Multigrid MaxLevels 9 MinCoarseRows 10 ZeroGuess 1 Cycle v
[OGL LOG][Proc: 0]p: init_precond: 926.545 [ms]
[OGL LOG][StoppingCriterion.H:239] Creating stopping criterion with minIter 30 frequency 1
[OGL LOG][Proc: 0]p: generate_solver: 0.008999999999999999 [ms]
[OGL LOG][Proc: 0]p: solve: 2287.514 [ms]
[OGL LOG][Proc: 0]p: copy_x_back: 16.735 [ms]
[OGL LOG][lduLduBase.H:330] 
Statistics:
	Time per iteration: 26599 [mu s]
	Time per residual norm calculation: 1010.000000 [mu s]
	Time per iteration and DOF: 0.527161 [ns]
	Retrieve results bandwidth 2.021000 [GByte/s]
[OGL LOG][Proc: 0]p: solve_multi_gpu: 3280.914 [ms]
MultigridcudaGKOCG:  Solving for p, Initial residual = 0.247650825585327, Final residual = 0.002379215691617072, No Iterations 86
time step continuity errors : sum local = 0.02320113405601642, global = 0.0007309024317099304, cumulative = -0.002730725493034417
[OGL LOG][Proc: 0]: global_index_init: 0.023 [ms]
[OGL LOG][Proc: 0]nuTilda_local_coeffs: call_update: 0 [ms]
[OGL LOG][Proc: 0]nuTilda_non_local_coeffs: call_update: 0 [ms]
[OGL LOG][Proc: 0]nuTilda: update_local_matrix_data: 219.366 [ms]
[OGL LOG][Proc: 0]nuTilda: update_non_local_matrix_data: 1.073 [ms]
[OGL LOG][Proc: 0]nuTilda_matrix: call_update: 4.832 [ms]
[OGL LOG][Proc: 0]nuTilda_rhs: call_update: 10.908 [ms]
[OGL LOG][Preconditioner.H:121] Generate preconditioner BJ MaxBlockSize 1
[OGL LOG][Proc: 0]nuTilda: init_precond: 2.256 [ms]
[OGL LOG][StoppingCriterion.H:239] Creating stopping criterion with minIter 3 frequency 1
[OGL LOG][Proc: 0]nuTilda: generate_solver: 0.019 [ms]
[OGL LOG][Proc: 0]nuTilda: solve: 223.26 [ms]
[OGL LOG][Proc: 0]nuTilda: copy_x_back: 16.775 [ms]
[OGL LOG][lduLduBase.H:330] 
Statistics:
	Time per iteration: 111630 [mu s]
	Time per residual norm calculation: 1658.000000 [mu s]
	Time per iteration and DOF: 2.212375 [ns]
	Retrieve results bandwidth 2.016000 [GByte/s]
[OGL LOG][Proc: 0]nuTilda: solve_multi_gpu: 280.6 [ms]
BJcudaGKOBiCGStab:  Solving for nuTilda, Initial residual = 0.03966049767273719, Final residual = 0.002190609140182114, No Iterations 2
ExecutionTime = 1172.46 s  ClockTime = 1175 s

Time = 9

velocityDampingConstraint velocityDamping damped 390 (0%) of cells, with max limit 300
[OGL LOG][Proc: 0]: global_index_init: 0.259 [ms]
[OGL LOG][Proc: 0]Ux_local_coeffs: call_update: 0 [ms]
[OGL LOG][Proc: 0]Ux_non_local_coeffs: call_update: 0 [ms]
[OGL LOG][Proc: 0]Ux: update_local_matrix_data: 216.629 [ms]
[OGL LOG][Proc: 0]Ux: update_non_local_matrix_data: 1.054 [ms]
[OGL LOG][Proc: 0]Ux_matrix: call_update: 5.046 [ms]
[OGL LOG][Proc: 0]Ux_rhs: call_update: 15.901 [ms]
[OGL LOG][Preconditioner.H:121] Generate preconditioner BJ MaxBlockSize 1
[OGL LOG][Proc: 0]Ux: init_precond: 2.374 [ms]
[OGL LOG][StoppingCriterion.H:239] Creating stopping criterion with minIter 3 frequency 1
[OGL LOG][Proc: 0]Ux: generate_solver: 0.027 [ms]
[OGL LOG][Proc: 0]Ux: solve: 286.464 [ms]
[OGL LOG][Proc: 0]Ux: copy_x_back: 16.63 [ms]
[OGL LOG][lduLduBase.H:330] 
Statistics:
	Time per iteration: 95488 [mu s]
	Time per residual norm calculation: 1728.000000 [mu s]
	Time per iteration and DOF: 1.892460 [ns]
	Retrieve results bandwidth 2.033000 [GByte/s]
[OGL LOG][Proc: 0]Ux: solve_multi_gpu: 346.584 [ms]
BJcudaGKOBiCGStab:  Solving for Ux, Initial residual = 0.09322534175729738, Final residual = 0.007287581585199648, No Iterations 3
[OGL LOG][Proc: 0]: global_index_init: 10.334 [ms]
[OGL LOG][Proc: 0]Uy_local_coeffs: call_update: 0 [ms]
[OGL LOG][Proc: 0]Uy_non_local_coeffs: call_update: 0 [ms]
[OGL LOG][Proc: 0]Uy: update_local_matrix_data: 219.537 [ms]
[OGL LOG][Proc: 0]Uy: update_non_local_matrix_data: 1.033 [ms]
[OGL LOG][Proc: 0]Uy_matrix: call_update: 4.994 [ms]
[OGL LOG][Proc: 0]Uy_rhs: call_update: 10.939 [ms]
[OGL LOG][Preconditioner.H:121] Generate preconditioner BJ MaxBlockSize 1
[OGL LOG][Proc: 0]Uy: init_precond: 2.441 [ms]
[OGL LOG][StoppingCriterion.H:239] Creating stopping criterion with minIter 4 frequency 1
[OGL LOG][Proc: 0]Uy: generate_solver: 0.016 [ms]
[OGL LOG][Proc: 0]Uy: solve: 235.216 [ms]
[OGL LOG][Proc: 0]Uy: copy_x_back: 16.856 [ms]
[OGL LOG][lduLduBase.H:330] 
Statistics:
	Time per iteration: 58804 [mu s]
	Time per residual norm calculation: 1255.000000 [mu s]
	Time per iteration and DOF: 1.165426 [ns]
	Retrieve results bandwidth 2.006000 [GByte/s]
[OGL LOG][Proc: 0]Uy: solve_multi_gpu: 275.981 [ms]
BJcudaGKOBiCGStab:  Solving for Uy, Initial residual = 0.1212239517183012, Final residual = 0.006543202950338257, No Iterations 4
[OGL LOG][Proc: 0]: global_index_init: 0.235 [ms]
[OGL LOG][Proc: 0]Uz_local_coeffs: call_update: 0 [ms]
[OGL LOG][Proc: 0]Uz_non_local_coeffs: call_update: 0 [ms]
[OGL LOG][Proc: 0]Uz: update_local_matrix_data: 220.305 [ms]
[OGL LOG][Proc: 0]Uz: update_non_local_matrix_data: 1.046 [ms]
[OGL LOG][Proc: 0]Uz_matrix: call_update: 4.694 [ms]
[OGL LOG][Proc: 0]Uz_rhs: call_update: 11.168 [ms]
[OGL LOG][Preconditioner.H:121] Generate preconditioner BJ MaxBlockSize 1
[OGL LOG][Proc: 0]Uz: init_precond: 2.337 [ms]
[OGL LOG][StoppingCriterion.H:239] Creating stopping criterion with minIter 4 frequency 1
[OGL LOG][Proc: 0]Uz: generate_solver: 0.016 [ms]
[OGL LOG][Proc: 0]Uz: solve: 228.773 [ms]
[OGL LOG][Proc: 0]Uz: copy_x_back: 16.603 [ms]
[OGL LOG][lduLduBase.H:330] 
Statistics:
	Time per iteration: 76257 [mu s]
	Time per residual norm calculation: 1562.000000 [mu s]
	Time per iteration and DOF: 1.511324 [ns]
	Retrieve results bandwidth 2.037000 [GByte/s]
[OGL LOG][Proc: 0]Uz: solve_multi_gpu: 269.199 [ms]
BJcudaGKOBiCGStab:  Solving for Uz, Initial residual = 0.1030066702125416, Final residual = 0.009022844788109233, No Iterations 3
[OGL LOG][Proc: 0]: global_index_init: 3.647 [ms]
[OGL LOG][Proc: 0]p_local_coeffs: call_update: 0 [ms]
[OGL LOG][Proc: 0]p_non_local_coeffs: call_update: 0 [ms]
[OGL LOG][Proc: 0]p: update_local_matrix_data: 173.758 [ms]
[OGL LOG][Proc: 0]p: update_non_local_matrix_data: 1.055 [ms]
[OGL LOG][Proc: 0]p_matrix: call_update: 5.033 [ms]
[OGL LOG][Proc: 0]p_rhs: call_update: 10.742 [ms]
[OGL LOG][Preconditioner.H:346] Generate preconditioner Multigrid MaxLevels 9 MinCoarseRows 10 ZeroGuess 1 Cycle v
[OGL LOG][Proc: 0]p: init_precond: 923.599 [ms]
[OGL LOG][StoppingCriterion.H:239] Creating stopping criterion with minIter 51 frequency 1
[OGL LOG][Proc: 0]p: generate_solver: 0.008 [ms]
[OGL LOG][Proc: 0]p: solve: 2206.701 [ms]
[OGL LOG][Proc: 0]p: copy_x_back: 16.716 [ms]
[OGL LOG][lduLduBase.H:330] 
Statistics:
	Time per iteration: 26270 [mu s]
	Time per residual norm calculation: 1461.000000 [mu s]
	Time per iteration and DOF: 0.520640 [ns]
	Retrieve results bandwidth 2.023000 [GByte/s]
[OGL LOG][Proc: 0]p: solve_multi_gpu: 3197.39 [ms]
MultigridcudaGKOCG:  Solving for p, Initial residual = 0.5288436592813672, Final residual = 0.004669779600641966, No Iterations 84
time step continuity errors : sum local = 0.0186646326320668, global = 0.0002099209821073166, cumulative = -0.002520804510927101
[OGL LOG][Proc: 0]: global_index_init: 0.025 [ms]
[OGL LOG][Proc: 0]nuTilda_local_coeffs: call_update: 0 [ms]
[OGL LOG][Proc: 0]nuTilda_non_local_coeffs: call_update: 0 [ms]
[OGL LOG][Proc: 0]nuTilda: update_local_matrix_data: 220.116 [ms]
[OGL LOG][Proc: 0]nuTilda: update_non_local_matrix_data: 1.122 [ms]
[OGL LOG][Proc: 0]nuTilda_matrix: call_update: 4.779 [ms]
[OGL LOG][Proc: 0]nuTilda_rhs: call_update: 10.658 [ms]
[OGL LOG][Preconditioner.H:121] Generate preconditioner BJ MaxBlockSize 1
[OGL LOG][Proc: 0]nuTilda: init_precond: 2.557 [ms]
[OGL LOG][StoppingCriterion.H:239] Creating stopping criterion with minIter 3 frequency 1
[OGL LOG][Proc: 0]nuTilda: generate_solver: 0.017 [ms]
[OGL LOG][Proc: 0]nuTilda: solve: 223.618 [ms]
[OGL LOG][Proc: 0]nuTilda: copy_x_back: 16.421 [ms]
[OGL LOG][lduLduBase.H:330] 
Statistics:
	Time per iteration: 111809 [mu s]
	Time per residual norm calculation: 1655.000000 [mu s]
	Time per iteration and DOF: 2.215923 [ns]
	Retrieve results bandwidth 2.059000 [GByte/s]
[OGL LOG][Proc: 0]nuTilda: solve_multi_gpu: 267.124 [ms]
BJcudaGKOBiCGStab:  Solving for nuTilda, Initial residual = 0.03444756661278779, Final residual = 0.00205828195577474, No Iterations 2
ExecutionTime = 1194.2 s  ClockTime = 1197 s

Time = 10

velocityDampingConstraint velocityDamping damped 703 (0%) of cells, with max limit 300
[OGL LOG][Proc: 0]: global_index_init: 0.162 [ms]
[OGL LOG][Proc: 0]Ux_local_coeffs: call_update: 0 [ms]
[OGL LOG][Proc: 0]Ux_non_local_coeffs: call_update: 0 [ms]
[OGL LOG][Proc: 0]Ux: update_local_matrix_data: 216.429 [ms]
[OGL LOG][Proc: 0]Ux: update_non_local_matrix_data: 1.133 [ms]
[OGL LOG][Proc: 0]Ux_matrix: call_update: 5.048 [ms]
[OGL LOG][Proc: 0]Ux_rhs: call_update: 10.829 [ms]
[OGL LOG][Preconditioner.H:121] Generate preconditioner BJ MaxBlockSize 1
[OGL LOG][Proc: 0]Ux: init_precond: 2.388 [ms]
[OGL LOG][StoppingCriterion.H:239] Creating stopping criterion with minIter 4 frequency 1
[OGL LOG][Proc: 0]Ux: generate_solver: 0.02 [ms]
[OGL LOG][Proc: 0]Ux: solve: 230.535 [ms]
[OGL LOG][Proc: 0]Ux: copy_x_back: 16.726 [ms]
[OGL LOG][lduLduBase.H:330] 
Statistics:
	Time per iteration: 76845 [mu s]
	Time per residual norm calculation: 1647.000000 [mu s]
	Time per iteration and DOF: 1.522977 [ns]
	Retrieve results bandwidth 2.022000 [GByte/s]
[OGL LOG][Proc: 0]Ux: solve_multi_gpu: 277.216 [ms]
BJcudaGKOBiCGStab:  Solving for Ux, Initial residual = 0.04406392251856765, Final residual = 0.002855708449844467, No Iterations 3
[OGL LOG][Proc: 0]: global_index_init: 0.263 [ms]
[OGL LOG][Proc: 0]Uy_local_coeffs: call_update: 0 [ms]
[OGL LOG][Proc: 0]Uy_non_local_coeffs: call_update: 0 [ms]
[OGL LOG][Proc: 0]Uy: update_local_matrix_data: 219.473 [ms]
[OGL LOG][Proc: 0]Uy: update_non_local_matrix_data: 1.113 [ms]
[OGL LOG][Proc: 0]Uy_matrix: call_update: 4.772 [ms]
[OGL LOG][Proc: 0]Uy_rhs: call_update: 10.931 [ms]
[OGL LOG][Preconditioner.H:121] Generate preconditioner BJ MaxBlockSize 1
[OGL LOG][Proc: 0]Uy: init_precond: 2.42 [ms]
[OGL LOG][StoppingCriterion.H:239] Creating stopping criterion with minIter 4 frequency 1
[OGL LOG][Proc: 0]Uy: generate_solver: 0.017 [ms]
[OGL LOG][Proc: 0]Uy: solve: 229.027 [ms]
[OGL LOG][Proc: 0]Uy: copy_x_back: 16.828 [ms]
[OGL LOG][lduLduBase.H:330] 
Statistics:
	Time per iteration: 76342 [mu s]
	Time per residual norm calculation: 1646.000000 [mu s]
	Time per iteration and DOF: 1.513008 [ns]
	Retrieve results bandwidth 2.009000 [GByte/s]
[OGL LOG][Proc: 0]Uy: solve_multi_gpu: 270.694 [ms]
BJcudaGKOBiCGStab:  Solving for Uy, Initial residual = 0.1433721603609127, Final residual = 0.01283399280788095, No Iterations 3
[OGL LOG][Proc: 0]: global_index_init: 0.24 [ms]
[OGL LOG][Proc: 0]Uz_local_coeffs: call_update: 0 [ms]
[OGL LOG][Proc: 0]Uz_non_local_coeffs: call_update: 0 [ms]
[OGL LOG][Proc: 0]Uz: update_local_matrix_data: 218.984 [ms]
[OGL LOG][Proc: 0]Uz: update_non_local_matrix_data: 1.17 [ms]
[OGL LOG][Proc: 0]Uz_matrix: call_update: 4.908 [ms]
[OGL LOG][Proc: 0]Uz_rhs: call_update: 10.95 [ms]
[OGL LOG][Preconditioner.H:121] Generate preconditioner BJ MaxBlockSize 1
[OGL LOG][Proc: 0]Uz: init_precond: 2.352 [ms]
[OGL LOG][StoppingCriterion.H:239] Creating stopping criterion with minIter 4 frequency 1
[OGL LOG][Proc: 0]Uz: generate_solver: 0.023 [ms]
[OGL LOG][Proc: 0]Uz: solve: 231.972 [ms]
[OGL LOG][Proc: 0]Uz: copy_x_back: 16.809 [ms]
[OGL LOG][lduLduBase.H:330] 
Statistics:
	Time per iteration: 77324 [mu s]
	Time per residual norm calculation: 1505.000000 [mu s]
	Time per iteration and DOF: 1.532471 [ns]
	Retrieve results bandwidth 2.012000 [GByte/s]
[OGL LOG][Proc: 0]Uz: solve_multi_gpu: 274.742 [ms]
BJcudaGKOBiCGStab:  Solving for Uz, Initial residual = 0.0823464945666479, Final residual = 0.007066396424904873, No Iterations 3
[OGL LOG][Proc: 0]: global_index_init: 3.556 [ms]
[OGL LOG][Proc: 0]p_local_coeffs: call_update: 0 [ms]
[OGL LOG][Proc: 0]p_non_local_coeffs: call_update: 0 [ms]
[OGL LOG][Proc: 0]p: update_local_matrix_data: 174.288 [ms]
[OGL LOG][Proc: 0]p: update_non_local_matrix_data: 1.122 [ms]
[OGL LOG][Proc: 0]p_matrix: call_update: 3.481 [ms]
[OGL LOG][Proc: 0]p_rhs: call_update: 12.264 [ms]
[OGL LOG][Preconditioner.H:346] Generate preconditioner Multigrid MaxLevels 9 MinCoarseRows 10 ZeroGuess 1 Cycle v
[OGL LOG][Proc: 0]p: init_precond: 933.335 [ms]
[OGL LOG][StoppingCriterion.H:239] Creating stopping criterion with minIter 50 frequency 1
[OGL LOG][Proc: 0]p: generate_solver: 0.008 [ms]
[OGL LOG][Proc: 0]p: solve: 1399.009 [ms]
[OGL LOG][Proc: 0]p: copy_x_back: 16.745 [ms]
[OGL LOG][lduLduBase.H:330] 
Statistics:
	Time per iteration: 27431 [mu s]
	Time per residual norm calculation: 1460.000000 [mu s]
	Time per iteration and DOF: 0.543650 [ns]
	Retrieve results bandwidth 2.019000 [GByte/s]
[OGL LOG][Proc: 0]p: solve_multi_gpu: 2400.192 [ms]
MultigridcudaGKOCG:  Solving for p, Initial residual = 0.2612720339624183, Final residual = 0.002550010670071062, No Iterations 51
time step continuity errors : sum local = 0.01610253608786746, global = -0.002002733764258807, cumulative = -0.004523538275185908
[OGL LOG][Proc: 0]: global_index_init: 0.024 [ms]
[OGL LOG][Proc: 0]nuTilda_local_coeffs: call_update: 0 [ms]
[OGL LOG][Proc: 0]nuTilda_non_local_coeffs: call_update: 0 [ms]
[OGL LOG][Proc: 0]nuTilda: update_local_matrix_data: 222.121 [ms]
[OGL LOG][Proc: 0]nuTilda: update_non_local_matrix_data: 1.054 [ms]
[OGL LOG][Proc: 0]nuTilda_matrix: call_update: 5.187 [ms]
[OGL LOG][Proc: 0]nuTilda_rhs: call_update: 10.765 [ms]
[OGL LOG][Preconditioner.H:121] Generate preconditioner BJ MaxBlockSize 1
[OGL LOG][Proc: 0]nuTilda: init_precond: 2.435 [ms]
[OGL LOG][StoppingCriterion.H:239] Creating stopping criterion with minIter 3 frequency 1
[OGL LOG][Proc: 0]nuTilda: generate_solver: 0.019 [ms]
[OGL LOG][Proc: 0]nuTilda: solve: 222.764 [ms]
[OGL LOG][Proc: 0]nuTilda: copy_x_back: 16.73 [ms]
[OGL LOG][lduLduBase.H:330] 
Statistics:
	Time per iteration: 111382 [mu s]
	Time per residual norm calculation: 1355.000000 [mu s]
	Time per iteration and DOF: 2.207460 [ns]
	Retrieve results bandwidth 2.021000 [GByte/s]
[OGL LOG][Proc: 0]nuTilda: solve_multi_gpu: 262.419 [ms]
BJcudaGKOBiCGStab:  Solving for nuTilda, Initial residual = 0.02916743268141067, Final residual = 0.001577641795635894, No Iterations 2
ExecutionTime = 1214.89 s  ClockTime = 1218 s

Time = 11

velocityDampingConstraint velocityDamping damped 689 (0%) of cells, with max limit 300
[OGL LOG][Proc: 0]: global_index_init: 0.296 [ms]
[OGL LOG][Proc: 0]Ux_local_coeffs: call_update: 0 [ms]
[OGL LOG][Proc: 0]Ux_non_local_coeffs: call_update: 0 [ms]
[OGL LOG][Proc: 0]Ux: update_local_matrix_data: 220.73 [ms]
[OGL LOG][Proc: 0]Ux: update_non_local_matrix_data: 0.987 [ms]
[OGL LOG][Proc: 0]Ux_matrix: call_update: 4.609 [ms]
[OGL LOG][Proc: 0]Ux_rhs: call_update: 11.344 [ms]
[OGL LOG][Preconditioner.H:121] Generate preconditioner BJ MaxBlockSize 1
[OGL LOG][Proc: 0]Ux: init_precond: 2.296 [ms]
[OGL LOG][StoppingCriterion.H:239] Creating stopping criterion with minIter 4 frequency 1
[OGL LOG][Proc: 0]Ux: generate_solver: 0.025 [ms]
[OGL LOG][Proc: 0]Ux: solve: 233.827 [ms]
[OGL LOG][Proc: 0]Ux: copy_x_back: 16.822 [ms]
[OGL LOG][lduLduBase.H:330] 
Statistics:
	Time per iteration: 77942 [mu s]
	Time per residual norm calculation: 1838.000000 [mu s]
	Time per iteration and DOF: 1.544719 [ns]
	Retrieve results bandwidth 2.010000 [GByte/s]
[OGL LOG][Proc: 0]Ux: solve_multi_gpu: 273.721 [ms]
BJcudaGKOBiCGStab:  Solving for Ux, Initial residual = 0.06598801135577657, Final residual = 0.003840979733708251, No Iterations 3
[OGL LOG][Proc: 0]: global_index_init: 0.207 [ms]
[...]
[OGL LOG][Proc: 0]nuTilda_local_coeffs: call_update: 0 [ms]
[OGL LOG][Proc: 0]nuTilda_non_local_coeffs: call_update: 0 [ms]
[OGL LOG][Proc: 0]nuTilda: update_local_matrix_data: 229.174 [ms]
[OGL LOG][Proc: 0]nuTilda: update_non_local_matrix_data: 1.182 [ms]
[OGL LOG][Proc: 0]nuTilda_matrix: call_update: 4.952 [ms]
[OGL LOG][Proc: 0]nuTilda_rhs: call_update: 10.586 [ms]
[OGL LOG][Preconditioner.H:121] Generate preconditioner BJ MaxBlockSize 1
[OGL LOG][Proc: 0]nuTilda: init_precond: 2.288 [ms]
[OGL LOG][StoppingCriterion.H:239] Creating stopping criterion with minIter 3 frequency 1
[OGL LOG][Proc: 0]nuTilda: generate_solver: 0.016 [ms]
[OGL LOG][Proc: 0]nuTilda: solve: 222.52 [ms]
[OGL LOG][Proc: 0]nuTilda: copy_x_back: 16.973 [ms]
[OGL LOG][lduLduBase.H:330] 
Statistics:
	Time per iteration: 111260 [mu s]
	Time per residual norm calculation: 1561.000000 [mu s]
	Time per iteration and DOF: 2.205042 [ns]
	Retrieve results bandwidth 1.992000 [GByte/s]
[OGL LOG][Proc: 0]nuTilda: solve_multi_gpu: 267.901 [ms]
BJcudaGKOBiCGStab:  Solving for nuTilda, Initial residual = 0.01153473690554714, Final residual = 0.0007956308472023406, No Iterations 2
bounding nuTilda, min: -0.0002083002987889801 max: 0.02958580907184159 average: 0.0009106625826170392
ExecutionTime = 3016.47 s  ClockTime = 3025 s

Time = 98

velocityDampingConstraint velocityDamping damped 0 (0%) of cells, with max limit 300
[OGL LOG][Proc: 0]: global_index_init: 0.22 [ms]
[OGL LOG][Proc: 0]Ux_local_coeffs: call_update: 0 [ms]
[OGL LOG][Proc: 0]Ux_non_local_coeffs: call_update: 0 [ms]
[OGL LOG][Proc: 0]Ux: update_local_matrix_data: 217.989 [ms]
[OGL LOG][Proc: 0]Ux: update_non_local_matrix_data: 0.998 [ms]
[OGL LOG][Proc: 0]Ux_matrix: call_update: 5.432 [ms]
[OGL LOG][Proc: 0]Ux_rhs: call_update: 10.814 [ms]
[OGL LOG][Preconditioner.H:121] Generate preconditioner BJ MaxBlockSize 1
[OGL LOG][Proc: 0]Ux: init_precond: 2.491 [ms]
[OGL LOG][StoppingCriterion.H:239] Creating stopping criterion with minIter 4 frequency 1
[OGL LOG][Proc: 0]Ux: generate_solver: 0.017 [ms]
[OGL LOG][Proc: 0]Ux: solve: 233.644 [ms]
[OGL LOG][Proc: 0]Ux: copy_x_back: 16.629 [ms]
[OGL LOG][lduLduBase.H:330] 
Statistics:
	Time per iteration: 77881 [mu s]
	Time per residual norm calculation: 1839.000000 [mu s]
	Time per iteration and DOF: 1.543510 [ns]
	Retrieve results bandwidth 2.033000 [GByte/s]
[OGL LOG][Proc: 0]Ux: solve_multi_gpu: 276.314 [ms]
BJcudaGKOBiCGStab:  Solving for Ux, Initial residual = 0.006870815342839308, Final residual = 0.0006698049669877609, No Iterations 3
[OGL LOG][Proc: 0]: global_index_init: 2.302 [ms]
[OGL LOG][Proc: 0]Uy_local_coeffs: call_update: 0 [ms]
[OGL LOG][Proc: 0]Uy_non_local_coeffs: call_update: 0 [ms]
[OGL LOG][Proc: 0]Uy: update_local_matrix_data: 216.933 [ms]
[OGL LOG][Proc: 0]Uy: update_non_local_matrix_data: 1.001 [ms]
[OGL LOG][Proc: 0]Uy_matrix: call_update: 5.023 [ms]
[OGL LOG][Proc: 0]Uy_rhs: call_update: 10.822 [ms]
[OGL LOG][Preconditioner.H:121] Generate preconditioner BJ MaxBlockSize 1
[OGL LOG][Proc: 0]Uy: init_precond: 2.517 [ms]
[OGL LOG][StoppingCriterion.H:239] Creating stopping criterion with minIter 4 frequency 1
[OGL LOG][Proc: 0]Uy: generate_solver: 0.016 [ms]
[OGL LOG][Proc: 0]Uy: solve: 233.346 [ms]
[OGL LOG][Proc: 0]Uy: copy_x_back: 16.709 [ms]
[OGL LOG][lduLduBase.H:330] 
Statistics:
	Time per iteration: 77782 [mu s]
	Time per residual norm calculation: 1290.000000 [mu s]
	Time per iteration and DOF: 1.541548 [ns]
	Retrieve results bandwidth 2.024000 [GByte/s]
[OGL LOG][Proc: 0]Uy: solve_multi_gpu: 277.423 [ms]
BJcudaGKOBiCGStab:  Solving for Uy, Initial residual = 0.0278566287687303, Final residual = 0.002645039815468792, No Iterations 3
[OGL LOG][Proc: 0]: global_index_init: 0.247 [ms]
[OGL LOG][Proc: 0]Uz_local_coeffs: call_update: 0 [ms]
[OGL LOG][Proc: 0]Uz_non_local_coeffs: call_update: 0 [ms]
[OGL LOG][Proc: 0]Uz: update_local_matrix_data: 218.871 [ms]
[OGL LOG][Proc: 0]Uz: update_non_local_matrix_data: 1.051 [ms]
[OGL LOG][Proc: 0]Uz_matrix: call_update: 4.993 [ms]
[OGL LOG][Proc: 0]Uz_rhs: call_update: 10.934 [ms]
[OGL LOG][Preconditioner.H:121] Generate preconditioner BJ MaxBlockSize 1
[OGL LOG][Proc: 0]Uz: init_precond: 2.254 [ms]
[OGL LOG][StoppingCriterion.H:239] Creating stopping criterion with minIter 4 frequency 1
[OGL LOG][Proc: 0]Uz: generate_solver: 0.018 [ms]
[OGL LOG][Proc: 0]Uz: solve: 238.765 [ms]
[OGL LOG][Proc: 0]Uz: copy_x_back: 16.787 [ms]
[OGL LOG][lduLduBase.H:330] 
Statistics:
	Time per iteration: 59691 [mu s]
	Time per residual norm calculation: 1821.000000 [mu s]
	Time per iteration and DOF: 1.183005 [ns]
	Retrieve results bandwidth 2.014000 [GByte/s]
[OGL LOG][Proc: 0]Uz: solve_multi_gpu: 281.66 [ms]
BJcudaGKOBiCGStab:  Solving for Uz, Initial residual = 0.02247786485581168, Final residual = 0.0009105628165573825, No Iterations 4
[OGL LOG][Proc: 0]: global_index_init: 3.203 [ms]
[OGL LOG][Proc: 0]p_local_coeffs: call_update: 0 [ms]
[OGL LOG][Proc: 0]p_non_local_coeffs: call_update: 0 [ms]
[OGL LOG][Proc: 0]p: update_local_matrix_data: 174.221 [ms]
[OGL LOG][Proc: 0]p: update_non_local_matrix_data: 1.046 [ms]
[OGL LOG][Proc: 0]p_matrix: call_update: 5.02 [ms]
[OGL LOG][Proc: 0]p_rhs: call_update: 10.945 [ms]
[OGL LOG][Preconditioner.H:346] Generate preconditioner Multigrid MaxLevels 9 MinCoarseRows 10 ZeroGuess 1 Cycle v
[OGL LOG][Proc: 0]p: init_precond: 928.172 [ms]
[OGL LOG][StoppingCriterion.H:239] Creating stopping criterion with minIter 27 frequency 1
[OGL LOG][Proc: 0]p: generate_solver: 0.008 [ms]
[OGL LOG][Proc: 0]p: solve: 939.0119999999999 [ms]
[OGL LOG][Proc: 0]p: copy_x_back: 16.663 [ms]
[OGL LOG][lduLduBase.H:330] 
Statistics:
	Time per iteration: 33536 [mu s]
	Time per residual norm calculation: 1475.000000 [mu s]
	Time per iteration and DOF: 0.664644 [ns]
	Retrieve results bandwidth 2.029000 [GByte/s]
[OGL LOG][Proc: 0]p: solve_multi_gpu: 1934.241 [ms]
MultigridcudaGKOCG:  Solving for p, Initial residual = 0.08807063496030032, Final residual = 0.0008368458233766176, No Iterations 28
time step continuity errors : sum local = 0.001110536456962838, global = 3.518537369563646e-05, cumulative = -0.007485185144802818
[OGL LOG][Proc: 0]: global_index_init: 0.025 [ms]
[OGL LOG][Proc: 0]nuTilda_local_coeffs: call_update: 0 [ms]
[OGL LOG][Proc: 0]nuTilda_non_local_coeffs: call_update: 0 [ms]
[OGL LOG][Proc: 0]nuTilda: update_local_matrix_data: 221.736 [ms]
[OGL LOG][Proc: 0]nuTilda: update_non_local_matrix_data: 1.057 [ms]
[OGL LOG][Proc: 0]nuTilda_matrix: call_update: 4.914 [ms]
[OGL LOG][Proc: 0]nuTilda_rhs: call_update: 10.582 [ms]
[OGL LOG][Preconditioner.H:121] Generate preconditioner BJ MaxBlockSize 1
[OGL LOG][Proc: 0]nuTilda: init_precond: 2.548 [ms]
[OGL LOG][StoppingCriterion.H:239] Creating stopping criterion with minIter 3 frequency 1
[OGL LOG][Proc: 0]nuTilda: generate_solver: 0.02 [ms]
[OGL LOG][Proc: 0]nuTilda: solve: 222.54 [ms]
[OGL LOG][Proc: 0]nuTilda: copy_x_back: 16.459 [ms]
[OGL LOG][lduLduBase.H:330] 
Statistics:
	Time per iteration: 111270 [mu s]
	Time per residual norm calculation: 1732.000000 [mu s]
	Time per iteration and DOF: 2.205240 [ns]
	Retrieve results bandwidth 2.054000 [GByte/s]
[OGL LOG][Proc: 0]nuTilda: solve_multi_gpu: 261.191 [ms]
BJcudaGKOBiCGStab:  Solving for nuTilda, Initial residual = 0.008772158985356807, Final residual = 0.0007061007441862461, No Iterations 2
bounding nuTilda, min: -0.0003015235770850691 max: 0.03020107874613025 average: 0.0009348623634732285
ExecutionTime = 3036.7 s  ClockTime = 3046 s

Time = 99

velocityDampingConstraint velocityDamping damped 0 (0%) of cells, with max limit 300
[OGL LOG][Proc: 0]: global_index_init: 0.155 [ms]
[OGL LOG][Proc: 0]Ux_local_coeffs: call_update: 0 [ms]
[OGL LOG][Proc: 0]Ux_non_local_coeffs: call_update: 0 [ms]
[OGL LOG][Proc: 0]Ux: update_local_matrix_data: 213.07 [ms]
[OGL LOG][Proc: 0]Ux: update_non_local_matrix_data: 1.152 [ms]
[OGL LOG][Proc: 0]Ux_matrix: call_update: 5.156 [ms]
[OGL LOG][Proc: 0]Ux_rhs: call_update: 10.36 [ms]
[OGL LOG][Preconditioner.H:121] Generate preconditioner BJ MaxBlockSize 1
[OGL LOG][Proc: 0]Ux: init_precond: 2.331 [ms]
[OGL LOG][StoppingCriterion.H:239] Creating stopping criterion with minIter 4 frequency 1
[OGL LOG][Proc: 0]Ux: generate_solver: 0.024 [ms]
[OGL LOG][Proc: 0]Ux: solve: 251.861 [ms]
[OGL LOG][Proc: 0]Ux: copy_x_back: 16.75 [ms]
[OGL LOG][lduLduBase.H:330] 
Statistics:
	Time per iteration: 62965 [mu s]
	Time per residual norm calculation: 1553.000000 [mu s]
	Time per iteration and DOF: 1.247892 [ns]
	Retrieve results bandwidth 2.019000 [GByte/s]
[OGL LOG][Proc: 0]Ux: solve_multi_gpu: 300.956 [ms]
BJcudaGKOBiCGStab:  Solving for Ux, Initial residual = 0.006769563985558107, Final residual = 0.0004051413034767238, No Iterations 4
[OGL LOG][Proc: 0]: global_index_init: 0.448 [ms]
[OGL LOG][Proc: 0]Uy_local_coeffs: call_update: 0 [ms]
[OGL LOG][Proc: 0]Uy_non_local_coeffs: call_update: 0 [ms]
[OGL LOG][Proc: 0]Uy: update_local_matrix_data: 217.234 [ms]
[OGL LOG][Proc: 0]Uy: update_non_local_matrix_data: 1.153 [ms]
[OGL LOG][Proc: 0]Uy_matrix: call_update: 5.246 [ms]
[OGL LOG][Proc: 0]Uy_rhs: call_update: 10.645 [ms]
[OGL LOG][Preconditioner.H:121] Generate preconditioner BJ MaxBlockSize 1
[OGL LOG][Proc: 0]Uy: init_precond: 2.323 [ms]
[OGL LOG][StoppingCriterion.H:239] Creating stopping criterion with minIter 4 frequency 1
[OGL LOG][Proc: 0]Uy: generate_solver: 0.017 [ms]
[OGL LOG][Proc: 0]Uy: solve: 230.004 [ms]
[OGL LOG][Proc: 0]Uy: copy_x_back: 16.833 [ms]
[OGL LOG][lduLduBase.H:330] 
Statistics:
	Time per iteration: 76668 [mu s]
	Time per residual norm calculation: 1673.000000 [mu s]
	Time per iteration and DOF: 1.519469 [ns]
	Retrieve results bandwidth 2.009000 [GByte/s]
[OGL LOG][Proc: 0]Uy: solve_multi_gpu: 272.068 [ms]
BJcudaGKOBiCGStab:  Solving for Uy, Initial residual = 0.0277551576732123, Final residual = 0.002637099581400801, No Iterations 3
[OGL LOG][Proc: 0]: global_index_init: 0.25 [ms]
[OGL LOG][Proc: 0]Uz_local_coeffs: call_update: 0 [ms]
[OGL LOG][Proc: 0]Uz_non_local_coeffs: call_update: 0 [ms]
[OGL LOG][Proc: 0]Uz: update_local_matrix_data: 218.394 [ms]
[OGL LOG][Proc: 0]Uz: update_non_local_matrix_data: 1.139 [ms]
[OGL LOG][Proc: 0]Uz_matrix: call_update: 4.809 [ms]
[OGL LOG][Proc: 0]Uz_rhs: call_update: 10.979 [ms]
[OGL LOG][Preconditioner.H:121] Generate preconditioner BJ MaxBlockSize 1
[OGL LOG][Proc: 0]Uz: init_precond: 2.498 [ms]
[OGL LOG][StoppingCriterion.H:239] Creating stopping criterion with minIter 4 frequency 1
[OGL LOG][Proc: 0]Uz: generate_solver: 0.022 [ms]
[OGL LOG][Proc: 0]Uz: solve: 230.294 [ms]
[OGL LOG][Proc: 0]Uz: copy_x_back: 16.828 [ms]
[OGL LOG][lduLduBase.H:330] 
Statistics:
	Time per iteration: 76764 [mu s]
	Time per residual norm calculation: 1603.000000 [mu s]
	Time per iteration and DOF: 1.521372 [ns]
	Retrieve results bandwidth 2.009000 [GByte/s]
[OGL LOG][Proc: 0]Uz: solve_multi_gpu: 272.114 [ms]
BJcudaGKOBiCGStab:  Solving for Uz, Initial residual = 0.02251065946384715, Final residual = 0.002210918822062063, No Iterations 3
[OGL LOG][Proc: 0]: global_index_init: 3.101 [ms]
[OGL LOG][Proc: 0]p_local_coeffs: call_update: 0 [ms]
[OGL LOG][Proc: 0]p_non_local_coeffs: call_update: 0 [ms]
[OGL LOG][Proc: 0]p: update_local_matrix_data: 174.87 [ms]
[OGL LOG][Proc: 0]p: update_non_local_matrix_data: 1.186 [ms]
[OGL LOG][Proc: 0]p_matrix: call_update: 4.806 [ms]
[OGL LOG][Proc: 0]p_rhs: call_update: 10.863 [ms]
[OGL LOG][Preconditioner.H:346] Generate preconditioner Multigrid MaxLevels 9 MinCoarseRows 10 ZeroGuess 1 Cycle v
[OGL LOG][Proc: 0]p: init_precond: 943.563 [ms]
[OGL LOG][StoppingCriterion.H:239] Creating stopping criterion with minIter 16 frequency 1
[OGL LOG][Proc: 0]p: generate_solver: 0.008999999999999999 [ms]
[OGL LOG][Proc: 0]p: solve: 1012.365 [ms]
[OGL LOG][Proc: 0]p: copy_x_back: 16.69 [ms]
[OGL LOG][lduLduBase.H:330] 
Statistics:
	Time per iteration: 30677 [mu s]
	Time per residual norm calculation: 1470.000000 [mu s]
	Time per iteration and DOF: 0.607982 [ns]
	Retrieve results bandwidth 2.026000 [GByte/s]
[OGL LOG][Proc: 0]p: solve_multi_gpu: 2023.773 [ms]
MultigridcudaGKOCG:  Solving for p, Initial residual = 0.08704789891628512, Final residual = 0.0008169656702587875, No Iterations 33
time step continuity errors : sum local = 0.001082933940611594, global = -4.393213111408352e-05, cumulative = -0.007529117275916901
[OGL LOG][Proc: 0]: global_index_init: 0.026 [ms]
[OGL LOG][Proc: 0]nuTilda_local_coeffs: call_update: 0 [ms]
[OGL LOG][Proc: 0]nuTilda_non_local_coeffs: call_update: 0 [ms]
[OGL LOG][Proc: 0]nuTilda: update_local_matrix_data: 218.46 [ms]
[OGL LOG][Proc: 0]nuTilda: update_non_local_matrix_data: 1.165 [ms]
[OGL LOG][Proc: 0]nuTilda_matrix: call_update: 4.865 [ms]
[OGL LOG][Proc: 0]nuTilda_rhs: call_update: 10.882 [ms]
[OGL LOG][Preconditioner.H:121] Generate preconditioner BJ MaxBlockSize 1
[OGL LOG][Proc: 0]nuTilda: init_precond: 2.299 [ms]
[OGL LOG][StoppingCriterion.H:239] Creating stopping criterion with minIter 3 frequency 1
[OGL LOG][Proc: 0]nuTilda: generate_solver: 0.018 [ms]
[OGL LOG][Proc: 0]nuTilda: solve: 223.583 [ms]
[OGL LOG][Proc: 0]nuTilda: copy_x_back: 17.302 [ms]
[OGL LOG][lduLduBase.H:330] 
Statistics:
	Time per iteration: 111791 [mu s]
	Time per residual norm calculation: 1765.000000 [mu s]
	Time per iteration and DOF: 2.215566 [ns]
	Retrieve results bandwidth 1.954000 [GByte/s]
[OGL LOG][Proc: 0]nuTilda: solve_multi_gpu: 265.73 [ms]
BJcudaGKOBiCGStab:  Solving for nuTilda, Initial residual = 0.01136246007459798, Final residual = 0.0007886470187314889, No Iterations 2
bounding nuTilda, min: -0.0002396400982677734 max: 0.03066242392235617 average: 0.0009572017568832108
ExecutionTime = 3056.97 s  ClockTime = 3066 s

Time = 100

velocityDampingConstraint velocityDamping damped 0 (0%) of cells, with max limit 300
[OGL LOG][Proc: 0]: global_index_init: 0.303 [ms]
[OGL LOG][Proc: 0]Ux_local_coeffs: call_update: 0 [ms]
[OGL LOG][Proc: 0]Ux_non_local_coeffs: call_update: 0 [ms]
[OGL LOG][Proc: 0]Ux: update_local_matrix_data: 220.432 [ms]
[OGL LOG][Proc: 0]Ux: update_non_local_matrix_data: 1.078 [ms]
[OGL LOG][Proc: 0]Ux_matrix: call_update: 5.284 [ms]
[OGL LOG][Proc: 0]Ux_rhs: call_update: 10.593 [ms]
[OGL LOG][Preconditioner.H:121] Generate preconditioner BJ MaxBlockSize 1
[OGL LOG][Proc: 0]Ux: init_precond: 2.031 [ms]
[OGL LOG][StoppingCriterion.H:239] Creating stopping criterion with minIter 4 frequency 1
[OGL LOG][Proc: 0]Ux: generate_solver: 0.016 [ms]
[OGL LOG][Proc: 0]Ux: solve: 240.14 [ms]
[OGL LOG][Proc: 0]Ux: copy_x_back: 16.006 [ms]
[OGL LOG][lduLduBase.H:330] 
Statistics:
	Time per iteration: 60035 [mu s]
	Time per residual norm calculation: 1895.000000 [mu s]
	Time per iteration and DOF: 1.189823 [ns]
	Retrieve results bandwidth 2.113000 [GByte/s]
[OGL LOG][Proc: 0]Ux: solve_multi_gpu: 278.326 [ms]
BJcudaGKOBiCGStab:  Solving for Ux, Initial residual = 0.00673910058930252, Final residual = 0.0002939555771794426, No Iterations 4
[OGL LOG][Proc: 0]: global_index_init: 0.217 [ms]
[OGL LOG][Proc: 0]Uy_local_coeffs: call_update: 0 [ms]
[OGL LOG][Proc: 0]Uy_non_local_coeffs: call_update: 0 [ms]
[OGL LOG][Proc: 0]Uy: update_local_matrix_data: 220.371 [ms]
[OGL LOG][Proc: 0]Uy: update_non_local_matrix_data: 1.059 [ms]
[OGL LOG][Proc: 0]Uy_matrix: call_update: 4.747 [ms]
[OGL LOG][Proc: 0]Uy_rhs: call_update: 10.922 [ms]
[OGL LOG][Preconditioner.H:121] Generate preconditioner BJ MaxBlockSize 1
[OGL LOG][Proc: 0]Uy: init_precond: 2.39 [ms]
[OGL LOG][StoppingCriterion.H:239] Creating stopping criterion with minIter 4 frequency 1
[OGL LOG][Proc: 0]Uy: generate_solver: 0.017 [ms]
[OGL LOG][Proc: 0]Uy: solve: 230.2 [ms]
[OGL LOG][Proc: 0]Uy: copy_x_back: 16.797 [ms]
[OGL LOG][lduLduBase.H:330] 
Statistics:
	Time per iteration: 76733 [mu s]
	Time per residual norm calculation: 1606.000000 [mu s]
	Time per iteration and DOF: 1.520758 [ns]
	Retrieve results bandwidth 2.013000 [GByte/s]
[OGL LOG][Proc: 0]Uy: solve_multi_gpu: 269.94 [ms]
BJcudaGKOBiCGStab:  Solving for Uy, Initial residual = 0.02759316749918735, Final residual = 0.002658872353059374, No Iterations 3
[OGL LOG][Proc: 0]: global_index_init: 0.279 [ms]
[OGL LOG][Proc: 0]Uz_local_coeffs: call_update: 0 [ms]
[OGL LOG][Proc: 0]Uz_non_local_coeffs: call_update: 0 [ms]
[OGL LOG][Proc: 0]Uz: update_local_matrix_data: 221.353 [ms]
[OGL LOG][Proc: 0]Uz: update_non_local_matrix_data: 1.008 [ms]
[OGL LOG][Proc: 0]Uz_matrix: call_update: 4.84 [ms]
[OGL LOG][Proc: 0]Uz_rhs: call_update: 11.106 [ms]
[OGL LOG][Preconditioner.H:121] Generate preconditioner BJ MaxBlockSize 1
[OGL LOG][Proc: 0]Uz: init_precond: 2.144 [ms]
[OGL LOG][StoppingCriterion.H:239] Creating stopping criterion with minIter 4 frequency 1
[OGL LOG][Proc: 0]Uz: generate_solver: 0.017 [ms]
[OGL LOG][Proc: 0]Uz: solve: 234.332 [ms]
[OGL LOG][Proc: 0]Uz: copy_x_back: 16.61 [ms]
[OGL LOG][lduLduBase.H:330] 
Statistics:
	Time per iteration: 58583 [mu s]
	Time per residual norm calculation: 1656.000000 [mu s]
	Time per iteration and DOF: 1.161046 [ns]
	Retrieve results bandwidth 2.036000 [GByte/s]
[OGL LOG][Proc: 0]Uz: solve_multi_gpu: 273.564 [ms]
BJcudaGKOBiCGStab:  Solving for Uz, Initial residual = 0.02241482952624867, Final residual = 0.0008871073678010973, No Iterations 4
[OGL LOG][Proc: 0]: global_index_init: 2.845 [ms]
[OGL LOG][Proc: 0]p_local_coeffs: call_update: 0 [ms]
[OGL LOG][Proc: 0]p_non_local_coeffs: call_update: 0 [ms]
[OGL LOG][Proc: 0]p: update_local_matrix_data: 175.069 [ms]
[OGL LOG][Proc: 0]p: update_non_local_matrix_data: 1.055 [ms]
[OGL LOG][Proc: 0]p_matrix: call_update: 4.927 [ms]
[OGL LOG][Proc: 0]p_rhs: call_update: 10.786 [ms]
[OGL LOG][Preconditioner.H:346] Generate preconditioner Multigrid MaxLevels 9 MinCoarseRows 10 ZeroGuess 1 Cycle v
[OGL LOG][Proc: 0]p: init_precond: 938.809 [ms]
[OGL LOG][StoppingCriterion.H:239] Creating stopping criterion with minIter 19 frequency 1
[OGL LOG][Proc: 0]p: generate_solver: 0.008999999999999999 [ms]
[OGL LOG][Proc: 0]p: solve: 1423.522 [ms]
[OGL LOG][Proc: 0]p: copy_x_back: 16.937 [ms]
[OGL LOG][lduLduBase.H:330] 
Statistics:
	Time per iteration: 29656 [mu s]
	Time per residual norm calculation: 1453.000000 [mu s]
	Time per iteration and DOF: 0.587747 [ns]
	Retrieve results bandwidth 1.996000 [GByte/s]
[OGL LOG][Proc: 0]p: solve_multi_gpu: 2429.64 [ms]
MultigridcudaGKOCG:  Solving for p, Initial residual = 0.08621141936597189, Final residual = 0.0008256579226303085, No Iterations 48
time step continuity errors : sum local = 0.001081428646555078, global = -4.192254442517235e-05, cumulative = -0.007571039820342074
[OGL LOG][Proc: 0]: global_index_init: 0.023 [ms]
[OGL LOG][Proc: 0]nuTilda_local_coeffs: call_update: 0 [ms]
[OGL LOG][Proc: 0]nuTilda_non_local_coeffs: call_update: 0 [ms]
[OGL LOG][Proc: 0]nuTilda: update_local_matrix_data: 218.993 [ms]
[OGL LOG][Proc: 0]nuTilda: update_non_local_matrix_data: 1.028 [ms]
[OGL LOG][Proc: 0]nuTilda_matrix: call_update: 4.821 [ms]
[OGL LOG][Proc: 0]nuTilda_rhs: call_update: 11.061 [ms]
[OGL LOG][Preconditioner.H:121] Generate preconditioner BJ MaxBlockSize 1
[OGL LOG][Proc: 0]nuTilda: init_precond: 2.352 [ms]
[OGL LOG][StoppingCriterion.H:239] Creating stopping criterion with minIter 3 frequency 1
[OGL LOG][Proc: 0]nuTilda: generate_solver: 0.015 [ms]
[OGL LOG][Proc: 0]nuTilda: solve: 235.218 [ms]
[OGL LOG][Proc: 0]nuTilda: copy_x_back: 17.056 [ms]
[OGL LOG][lduLduBase.H:330] 
Statistics:
	Time per iteration: 117609 [mu s]
	Time per residual norm calculation: 1765.000000 [mu s]
	Time per iteration and DOF: 2.330872 [ns]
	Retrieve results bandwidth 1.982000 [GByte/s]
[OGL LOG][Proc: 0]nuTilda: solve_multi_gpu: 277.571 [ms]
BJcudaGKOBiCGStab:  Solving for nuTilda, Initial residual = 0.008725812603872524, Final residual = 0.000708161509689486, No Iterations 2
bounding nuTilda, min: -0.0004159086356877919 max: 0.03109386808579965 average: 0.0009823351905200947
ExecutionTime = 3077.79 s  ClockTime = 3087 s

End

Finalising parallel run
