/*---------------------------------------------------------------------------*\
| =========                 |                                                 |
| \\      /  F ield         | OpenFOAM: The Open Source CFD Toolbox           |
|  \\    /   O peration     | Version:  2306                                  |
|   \\  /    A nd           | Website:  www.openfoam.com                      |
|    \\/     M anipulation  |                                                 |
\*---------------------------------------------------------------------------*/
Build  : c423ebec-20231012 OPENFOAM=2306 version=v2306
Arch   : "LSB;label=32;scalar=64"
Exec   : decomposePar -force
Date   : Feb 16 2024
Time   : 09:04:51
Host   : hkn0055.localdomain
PID    : 2833972
--> FOAM Warning : 
    From Foam::fileName Foam::cwd_L()
    in file POSIX.C at line 552
    PWD is not the cwd() - reverting to physical description
I/O    : uncollated
--> FOAM Warning : 
    From Foam::fileName Foam::cwd_L()
    in file POSIX.C at line 552
    PWD is not the cwd() - reverting to physical description
Case   : /hkfs/work/workspace/scratch/eq4036-windsorbody_setup/workspace/e95de9915171c3114ed5de72c9c491d3/case
nProcs : 1
trapFpe: Floating point exception trapping enabled (FOAM_SIGFPE).
fileModificationChecking : Monitoring run-time modified files using timeStampMaster (fileModificationSkew 5, maxFileModificationPolls 20)
allowSystemOperations : Allowing user-supplied system call operations

// * * * * * * * * * * * * * * * * * * * * * * * * * * * * * * * * * * * * * //
Create time

--> FOAM Warning : 
    From void* Foam::dlLibraryTable::openLibrary(const Foam::fileName&, bool)
    in file db/dynamicLibrary/dlLibraryTable/dlLibraryTable.C at line 188
    Could not load "libpetscFoam.so"
libpetscFoam.so: cannot open shared object file: No such file or directory


Decomposing mesh

Create mesh

Calculating distribution of cells
Decomposition method simple [16] (region region0)

Finished decomposition in 16.71 s

Calculating original mesh data

Distributing cells to processors

Distributing faces to processors

Distributing points to processors

Constructing processor meshes

Processor 0
    Number of cells = 1891145
    Number of points = 1990673
    Number of faces shared with processor 1 = 8867
    Number of faces shared with processor 4 = 710
    Number of faces shared with processor 8 = 33680
    Number of faces shared with processor 9 = 1
    Number of processor patches = 4
    Number of processor faces = 43258
    Number of boundary faces = 146032

Processor 1
    Number of cells = 1259317
    Number of points = 1321970
    Number of faces shared with processor 0 = 8867
    Number of faces shared with processor 2 = 10210
    Number of faces shared with processor 5 = 90
    Number of faces shared with processor 8 = 1
    Number of faces shared with processor 9 = 38489
    Number of faces shared with processor 10 = 2
    Number of processor patches = 6
    Number of processor faces = 57659
    Number of boundary faces = 56123

Processor 2
    Number of cells = 1229823
    Number of points = 1289046
    Number of faces shared with processor 1 = 10210
    Number of faces shared with processor 3 = 10082
    Number of faces shared with processor 6 = 80
    Number of faces shared with processor 9 = 4
    Number of faces shared with processor 10 = 39198
    Number of faces shared with processor 11 = 2
    Number of processor patches = 6
    Number of processor faces = 59576
    Number of boundary faces = 47856

Processor 3
    Number of cells = 1827514
    Number of points = 1927043
    Number of faces shared with processor 2 = 10082
    Number of faces shared with processor 7 = 560
    Number of faces shared with processor 10 = 11
    Number of faces shared with processor 11 = 44028
    Number of processor patches = 4
    Number of processor faces = 54681
    Number of boundary faces = 100802

Processor 4
    Number of cells = 1909969
    Number of points = 2010237
    Number of faces shared with processor 0 = 710
    Number of faces shared with processor 5 = 8681
    Number of faces shared with processor 12 = 33161
    Number of processor patches = 3
    Number of processor faces = 42552
    Number of boundary faces = 147049

Processor 5
    Number of cells = 1322256
    Number of points = 1385186
    Number of faces shared with processor 1 = 90
    Number of faces shared with processor 4 = 8681
    Number of faces shared with processor 6 = 10550
    Number of faces shared with processor 12 = 3
    Number of faces shared with processor 13 = 37961
    Number of processor patches = 5
    Number of processor faces = 57285
    Number of boundary faces = 56862

Processor 6
    Number of cells = 1296217
    Number of points = 1356116
    Number of faces shared with processor 2 = 80
    Number of faces shared with processor 5 = 10550
    Number of faces shared with processor 7 = 10639
    Number of faces shared with processor 14 = 38909
    Number of faces shared with processor 15 = 38
    Number of processor patches = 5
    Number of processor faces = 60216
    Number of boundary faces = 47824

Processor 7
    Number of cells = 1878031
    Number of points = 1978011
    Number of faces shared with processor 3 = 560
    Number of faces shared with processor 6 = 10639
    Number of faces shared with processor 14 = 5
    Number of faces shared with processor 15 = 43277
    Number of processor patches = 4
    Number of processor faces = 54481
    Number of boundary faces = 101015

Processor 8
    Number of cells = 1266394
    Number of points = 1366793
    Number of faces shared with processor 0 = 33680
    Number of faces shared with processor 1 = 1
    Number of faces shared with processor 9 = 10466
    Number of faces shared with processor 12 = 1136
    Number of processor patches = 4
    Number of processor faces = 45283
    Number of boundary faces = 76494

Processor 9
    Number of cells = 1896524
    Number of points = 1975362
    Number of faces shared with processor 0 = 1
    Number of faces shared with processor 1 = 38489
    Number of faces shared with processor 2 = 4
    Number of faces shared with processor 8 = 10466
    Number of faces shared with processor 10 = 18152
    Number of faces shared with processor 13 = 144
    Number of processor patches = 6
    Number of processor faces = 67256
    Number of boundary faces = 16173

Processor 10
    Number of cells = 1925692
    Number of points = 2000542
    Number of faces shared with processor 1 = 2
    Number of faces shared with processor 2 = 39198
    Number of faces shared with processor 3 = 11
    Number of faces shared with processor 9 = 18152
    Number of faces shared with processor 11 = 18050
    Number of faces shared with processor 14 = 128
    Number of processor patches = 6
    Number of processor faces = 75541
    Number of boundary faces = 544

Processor 11
    Number of cells = 1317863
    Number of points = 1396132
    Number of faces shared with processor 2 = 2
    Number of faces shared with processor 3 = 44028
    Number of faces shared with processor 10 = 18050
    Number of faces shared with processor 15 = 896
    Number of processor patches = 4
    Number of processor faces = 62976
    Number of boundary faces = 4640

Processor 12
    Number of cells = 1239628
    Number of points = 1338018
    Number of faces shared with processor 4 = 33161
    Number of faces shared with processor 5 = 3
    Number of faces shared with processor 8 = 1136
    Number of faces shared with processor 13 = 9999
    Number of processor patches = 4
    Number of processor faces = 44299
    Number of boundary faces = 74731

Processor 13
    Number of cells = 1829039
    Number of points = 1906456
    Number of faces shared with processor 5 = 37961
    Number of faces shared with processor 9 = 144
    Number of faces shared with processor 12 = 9999
    Number of faces shared with processor 14 = 17233
    Number of processor patches = 4
    Number of processor faces = 65337
    Number of boundary faces = 15966

Processor 14
    Number of cells = 1855404
    Number of points = 1929197
    Number of faces shared with processor 6 = 38909
    Number of faces shared with processor 7 = 5
    Number of faces shared with processor 10 = 128
    Number of faces shared with processor 13 = 17233
    Number of faces shared with processor 15 = 17779
    Number of processor patches = 5
    Number of processor faces = 74054
    Number of boundary faces = 577

Processor 15
    Number of cells = 1283728
    Number of points = 1361310
    Number of faces shared with processor 6 = 38
    Number of faces shared with processor 7 = 43277
    Number of faces shared with processor 11 = 896
    Number of faces shared with processor 14 = 17779
    Number of processor patches = 4
    Number of processor faces = 61990
    Number of boundary faces = 4640

Number of processor faces = 463222
Max number of cells = 1925692 (22.1278247369329% above average 1576784)
Max number of processor patches = 6 (29.72972972972973% above average 4.625)
Max number of faces between processors = 75541 (30.46185198457759% above average 57902.75)

Time = 0

Processor 0: field transfer
--> FOAM Warning : 
    From void* Foam::dlLibraryTable::openLibrary(const Foam::fileName&, bool)
    in file db/dynamicLibrary/dlLibraryTable/dlLibraryTable.C at line 188
    Could not load "libpetscFoam.so"
libpetscFoam.so: cannot open shared object file: No such file or directory
Processor 1: field transfer
--> FOAM Warning : 
    From void* Foam::dlLibraryTable::openLibrary(const Foam::fileName&, bool)
    in file db/dynamicLibrary/dlLibraryTable/dlLibraryTable.C at line 188
    Could not load "libpetscFoam.so"
libpetscFoam.so: cannot open shared object file: No such file or directory
Processor 2: field transfer
--> FOAM Warning : 
    From void* Foam::dlLibraryTable::openLibrary(const Foam::fileName&, bool)
    in file db/dynamicLibrary/dlLibraryTable/dlLibraryTable.C at line 188
    Could not load "libpetscFoam.so"
libpetscFoam.so: cannot open shared object file: No such file or directory
Processor 3: field transfer
--> FOAM Warning : 
    From void* Foam::dlLibraryTable::openLibrary(const Foam::fileName&, bool)
    in file db/dynamicLibrary/dlLibraryTable/dlLibraryTable.C at line 188
    Could not load "libpetscFoam.so"
libpetscFoam.so: cannot open shared object file: No such file or directory
Processor 4: field transfer
--> FOAM Warning : 
    From void* Foam::dlLibraryTable::openLibrary(const Foam::fileName&, bool)
    in file db/dynamicLibrary/dlLibraryTable/dlLibraryTable.C at line 188
    Could not load "libpetscFoam.so"
libpetscFoam.so: cannot open shared object file: No such file or directory
Processor 5: field transfer
--> FOAM Warning : 
    From void* Foam::dlLibraryTable::openLibrary(const Foam::fileName&, bool)
    in file db/dynamicLibrary/dlLibraryTable/dlLibraryTable.C at line 188
    Could not load "libpetscFoam.so"
libpetscFoam.so: cannot open shared object file: No such file or directory
Processor 6: field transfer
--> FOAM Warning : 
    From void* Foam::dlLibraryTable::openLibrary(const Foam::fileName&, bool)
    in file db/dynamicLibrary/dlLibraryTable/dlLibraryTable.C at line 188
    Could not load "libpetscFoam.so"
libpetscFoam.so: cannot open shared object file: No such file or directory
Processor 7: field transfer
--> FOAM Warning : 
    From void* Foam::dlLibraryTable::openLibrary(const Foam::fileName&, bool)
    in file db/dynamicLibrary/dlLibraryTable/dlLibraryTable.C at line 188
    Could not load "libpetscFoam.so"
libpetscFoam.so: cannot open shared object file: No such file or directory
Processor 8: field transfer
--> FOAM Warning : 
    From void* Foam::dlLibraryTable::openLibrary(const Foam::fileName&, bool)
    in file db/dynamicLibrary/dlLibraryTable/dlLibraryTable.C at line 188
    Could not load "libpetscFoam.so"
libpetscFoam.so: cannot open shared object file: No such file or directory
Processor 9: field transfer
--> FOAM Warning : 
    From void* Foam::dlLibraryTable::openLibrary(const Foam::fileName&, bool)
    in file db/dynamicLibrary/dlLibraryTable/dlLibraryTable.C at line 188
    Could not load "libpetscFoam.so"
libpetscFoam.so: cannot open shared object file: No such file or directory
Processor 10: field transfer
--> FOAM Warning : 
    From void* Foam::dlLibraryTable::openLibrary(const Foam::fileName&, bool)
    in file db/dynamicLibrary/dlLibraryTable/dlLibraryTable.C at line 188
    Could not load "libpetscFoam.so"
libpetscFoam.so: cannot open shared object file: No such file or directory
Processor 11: field transfer
--> FOAM Warning : 
    From void* Foam::dlLibraryTable::openLibrary(const Foam::fileName&, bool)
    in file db/dynamicLibrary/dlLibraryTable/dlLibraryTable.C at line 188
    Could not load "libpetscFoam.so"
libpetscFoam.so: cannot open shared object file: No such file or directory
Processor 12: field transfer
--> FOAM Warning : 
    From void* Foam::dlLibraryTable::openLibrary(const Foam::fileName&, bool)
    in file db/dynamicLibrary/dlLibraryTable/dlLibraryTable.C at line 188
    Could not load "libpetscFoam.so"
libpetscFoam.so: cannot open shared object file: No such file or directory
Processor 13: field transfer
--> FOAM Warning : 
    From void* Foam::dlLibraryTable::openLibrary(const Foam::fileName&, bool)
    in file db/dynamicLibrary/dlLibraryTable/dlLibraryTable.C at line 188
    Could not load "libpetscFoam.so"
libpetscFoam.so: cannot open shared object file: No such file or directory
Processor 14: field transfer
--> FOAM Warning : 
    From void* Foam::dlLibraryTable::openLibrary(const Foam::fileName&, bool)
    in file db/dynamicLibrary/dlLibraryTable/dlLibraryTable.C at line 188
    Could not load "libpetscFoam.so"
libpetscFoam.so: cannot open shared object file: No such file or directory
Processor 15: field transfer
--> FOAM Warning : 
    From void* Foam::dlLibraryTable::openLibrary(const Foam::fileName&, bool)
    in file db/dynamicLibrary/dlLibraryTable/dlLibraryTable.C at line 188
    Could not load "libpetscFoam.so"
libpetscFoam.so: cannot open shared object file: No such file or directory

End

