/*---------------------------------------------------------------------------*\
| =========                 |                                                 |
| \\      /  F ield         | OpenFOAM: The Open Source CFD Toolbox           |
|  \\    /   O peration     | Version:  2312                                  |
|   \\  /    A nd           | Website:  www.openfoam.com                      |
|    \\/     M anipulation  |                                                 |
\*---------------------------------------------------------------------------*/
Build  : a46b310f-20240104 OPENFOAM=2312 version=v2312
Arch   : "LSB;label=32;scalar=64"
Exec   : icoFoam -parallel -case /hppfs/scratch/0B/di35yan/lidDriven3D/workspace/24026e065f93bd2dcb4566983a2ebc0a/case
Date   : Feb 17 2024
Time   : 20:28:16
Host   : i20r02c06s08
PID    : 171547
I/O    : uncollated
Case   : /hppfs/scratch/0B/di35yan/lidDriven3D/workspace/24026e065f93bd2dcb4566983a2ebc0a/case
nProcs : 4
Hosts  :
(
    (i20r02c06s08 4)
)
Pstream initialized with:
    floatTransfer      : false
    nProcsSimpleSum    : 0
    nonBlockingExchange: 0 (tuning: 0)
    exchange algorithm : 0
    commsType          : nonBlocking
    polling iterations : 0
trapFpe: Floating point exception trapping enabled (FOAM_SIGFPE).
fileModificationChecking : Monitoring run-time modified files using timeStampMaster (fileModificationSkew 5, maxFileModificationPolls 20)
allowSystemOperations : Allowing user-supplied system call operations

// * * * * * * * * * * * * * * * * * * * * * * * * * * * * * * * * * * * * * //
Create time

--> FOAM Warning : 
    From void* Foam::dlLibraryTable::openLibrary(const Foam::fileName&, bool)
    in file db/dynamicLibrary/dlLibraryTable/dlLibraryTable.C at line 188
    Could not load "libpetscFoam.so"
libpetscFoam.so: cannot open shared object file: No such file or directory
Create mesh for time = 0


PISO: Operating solver in PISO mode

Reading transportProperties

Reading field p

Reading field U

Reading/calculating face flux field phi


Starting time loop

Time = 0.000125

Courant Number mean: 8.02505e-18 max: 4.85723e-14
[INFO] MatrixAssemblyU: 2019.49 [ms]
DILUPBiCGStab:  Solving for Ux, Initial residual = 1, Final residual = 0.0205364, No Iterations 5
DILUPBiCGStab:  Solving for Uy:  solution singularity
DILUPBiCGStab:  Solving for Uz:  solution singularity
[INFO] MomentumPredictor: 8014.97 [ms]
[INFO] MatrixAssemblyPI: 1963.94 [ms]
[INFO] AdjustPhi: 208.389 [ms]
[INFO] ConstrainPressure: 0.008 [ms]
[INFO] MatrixAssemblyPII: 592.041 [ms]
[OGL LOG][lduLduBase.H:119] Initialising OGL
	OGL commit:  34fc915+
	Branch: fix/cyclic_interfaces 
	Build type: Debug
	Ginkgo version: 1.8.0 ( develop)
	Ginkgo commit: fc86d48b78cebd2b2c5833a2dcf0fe40f615cf19
	MPI is GPU aware: 1
	Forces host buffer based communication: 0
	CPU ranks per GPU: 1
	Matrix format: Ell
	End OGL_INFO
[OGL LOG][Proc: 0]: global_index_init: 0.436 [ms]
[OGL LOG][Proc: 0]p_local_cols: call_init: 0.638 [ms]
[OGL LOG][Proc: 0]p_local_rows: call_init: 0.017 [ms]
[OGL LOG][Proc: 0]p_local_ldu_map: call_init: 0.01 [ms]
[OGL LOG][Proc: 0]p_local_coeffs: call_init: 3.493 [ms]
[OGL LOG][Proc: 0]p_non_local_cols: call_init: 0.032 [ms]
[OGL LOG][Proc: 0]p_non_local_rows: call_init: 0.004 [ms]
[OGL LOG][Proc: 0]p_non_local_ldu_map: call_init: 0.003 [ms]
[OGL LOG][Proc: 0]p_non_local_coeffs: call_init: 0.007 [ms]
[OGL LOG][Proc: 0]p: init_local_sparsity_pattern: 264374 [ms]
[OGL LOG][Proc: 0]p: init_non_local_sparsity_pattern: 286.786 [ms]
[OGL LOG][Proc: 0]p: update_local_matrix_data: 2447.01 [ms]
[OGL LOG][Proc: 0]p: update_non_local_matrix_data: 2.938 [ms]
[OGL LOG][Proc: 0]device_partition: call_init: 4.089 [ms]
[OGL LOG][Proc: 0]p_matrix: call_init: 1221.7 [ms]
[OGL LOG][Proc: 0]p_rhs: call_init: 33.28 [ms]
[OGL LOG][Proc: 0]p_solution: call_init: 31.829 [ms]
[OGL LOG][Proc: 0]p: init_precond: 1.995 [ms]
[OGL LOG][StoppingCriterion.H:239] Creating stopping criterion with minIter 0 frequency 1
[OGL LOG][Proc: 0]p: generate_solver: 3.538 [ms]
[OGL LOG][Proc: 0]p: solve: 55094.4 [ms]
[OGL LOG][Proc: 0]p: copy_x_back: 41.717 [ms]
[OGL LOG][lduLduBase.H:330] 
Statistics:
	Time per iteration: 16920 [mu s]
	Time per residual norm calculation: 53133.000000 [mu s]
	Time per iteration and DOF: 0.264375 [ns]
	Retrieve results bandwidth 3.068000 [GByte/s]
[OGL LOG][Proc: 0]p: solve_multi_gpu: 57704.8 [ms]
nonedpcppGKOCG:  Solving for p, Initial residual = 1, Final residual = 9.90745e-05, No Iterations 3256
[INFO] SolveP: 325100 [ms]
time step continuity errors : sum local = 2.37045e-09, global = -3.65387e-21, cumulative = -3.65387e-21
[INFO] ContinuityError: 242.958 [ms]
[INFO] CorrectBoundary: 5.844 [ms]
[INFO] PISOStep: 328952 [ms]
[INFO] MatrixAssemblyPI: 1810.35 [ms]
[INFO] AdjustPhi: 281.081 [ms]
[INFO] ConstrainPressure: 0.002 [ms]
[INFO] MatrixAssemblyPII: 578.1 [ms]
[OGL LOG][Proc: 0]: global_index_init: 0.237 [ms]
[OGL LOG][Proc: 0]p_local_coeffs: call_update: 0.001 [ms]
[OGL LOG][Proc: 0]p_non_local_coeffs: call_update: 0 [ms]
[OGL LOG][Proc: 0]p: update_local_matrix_data: 390.72 [ms]
[OGL LOG][Proc: 0]p: update_non_local_matrix_data: 2.366 [ms]
[OGL LOG][Proc: 0]p: regenerate_distributed_matrix: 1090.83 [ms]
[OGL LOG][Proc: 0]p_matrix: call_update: 1096.42 [ms]
[OGL LOG][Proc: 0]p_rhs: call_update: 32.523 [ms]
[OGL LOG][Proc: 0]p: init_precond: 0.07 [ms]
[OGL LOG][StoppingCriterion.H:239] Creating stopping criterion with minIter 0 frequency 1
[OGL LOG][Proc: 0]p: generate_solver: 0.027 [ms]
[OGL LOG][Proc: 0]p: solve: 53647.4 [ms]
[OGL LOG][Proc: 0]p: copy_x_back: 37.829 [ms]
[OGL LOG][lduLduBase.H:330] 
Statistics:
	Time per iteration: 16557 [mu s]
	Time per residual norm calculation: 292.000000 [mu s]
	Time per iteration and DOF: 0.258703 [ns]
	Retrieve results bandwidth 3.383000 [GByte/s]
[OGL LOG][Proc: 0]p: solve_multi_gpu: 54821.7 [ms]
nonedpcppGKOCG:  Solving for p, Initial residual = 0.817815, Final residual = 9.94384e-05, No Iterations 3240
[INFO] SolveP: 55317.2 [ms]
time step continuity errors : sum local = 2.88802e-09, global = 2.74565e-22, cumulative = -3.37931e-21
[INFO] ContinuityError: 249.955 [ms]
[INFO] CorrectBoundary: 54.418 [ms]
[INFO] PISOStep: 59013.7 [ms]
[INFO] TimeStep: 398291 [ms]
ExecutionTime = 403.02 s  ClockTime = 412 s

Time = 0.00025

Courant Number mean: 0.0109245 max: 0.437689
[INFO] MatrixAssemblyU: 1599.87 [ms]
DILUPBiCGStab:  Solving for Ux, Initial residual = 0.108102, Final residual = 0.0124051, No Iterations 5
DILUPBiCGStab:  Solving for Uy, Initial residual = 0.48395, Final residual = 0.0484202, No Iterations 5
DILUPBiCGStab:  Solving for Uz, Initial residual = 0.997174, Final residual = 0.111772, No Iterations 5
[INFO] MomentumPredictor: 13444.4 [ms]
[INFO] MatrixAssemblyPI: 1773.53 [ms]
[INFO] AdjustPhi: 152.28 [ms]
[INFO] ConstrainPressure: 0.003 [ms]
[INFO] MatrixAssemblyPII: 566.364 [ms]
[OGL LOG][Proc: 0]: global_index_init: 0.028 [ms]
[OGL LOG][Proc: 0]p_local_coeffs: call_update: 0 [ms]
[OGL LOG][Proc: 0]p_non_local_coeffs: call_update: 0 [ms]
[OGL LOG][Proc: 0]p: update_local_matrix_data: 362.435 [ms]
[OGL LOG][Proc: 0]p: update_non_local_matrix_data: 2.552 [ms]
[OGL LOG][Proc: 0]p: regenerate_distributed_matrix: 922.932 [ms]
[OGL LOG][Proc: 0]p_matrix: call_update: 927.658 [ms]
[OGL LOG][Proc: 0]p_rhs: call_update: 34.341 [ms]
[OGL LOG][Proc: 0]p: init_precond: 0.042 [ms]
[OGL LOG][StoppingCriterion.H:239] Creating stopping criterion with minIter 1944 frequency 4
[OGL LOG][Proc: 0]p: generate_solver: 0.022 [ms]
[OGL LOG][Proc: 0]p: solve: 52026.9 [ms]
[OGL LOG][Proc: 0]p: copy_x_back: 41.311 [ms]
[OGL LOG][lduLduBase.H:330] 
Statistics:
	Time per iteration: 16294 [mu s]
	Time per residual norm calculation: 297.000000 [mu s]
	Time per iteration and DOF: 0.254594 [ns]
	Retrieve results bandwidth 3.098000 [GByte/s]
[OGL LOG][Proc: 0]p: solve_multi_gpu: 53034.8 [ms]
nonedpcppGKOCG:  Solving for p, Initial residual = 0.901144, Final residual = 9.78348e-05, No Iterations 3193
[INFO] SolveP: 53481 [ms]
time step continuity errors : sum local = 6.515e-09, global = 1.88205e-22, cumulative = -3.1911e-21
[INFO] ContinuityError: 270.761 [ms]
[INFO] CorrectBoundary: 10.899 [ms]
[INFO] PISOStep: 56994.8 [ms]
[INFO] MatrixAssemblyPI: 1814.87 [ms]
[INFO] AdjustPhi: 264.809 [ms]
[INFO] ConstrainPressure: 0.002 [ms]
[INFO] MatrixAssemblyPII: 608.17 [ms]
[OGL LOG][Proc: 0]: global_index_init: 0.93 [ms]
[OGL LOG][Proc: 0]p_local_coeffs: call_update: 0 [ms]
[OGL LOG][Proc: 0]p_non_local_coeffs: call_update: 0 [ms]
[OGL LOG][Proc: 0]p: update_local_matrix_data: 353.977 [ms]
[OGL LOG][Proc: 0]p: update_non_local_matrix_data: 2.396 [ms]
[OGL LOG][Proc: 0]p: regenerate_distributed_matrix: 925.145 [ms]
[OGL LOG][Proc: 0]p_matrix: call_update: 929.642 [ms]
[OGL LOG][Proc: 0]p_rhs: call_update: 32.961 [ms]
[OGL LOG][Proc: 0]p: init_precond: 0.052 [ms]
[OGL LOG][StoppingCriterion.H:239] Creating stopping criterion with minIter 1915 frequency 4
[OGL LOG][Proc: 0]p: generate_solver: 0.021 [ms]
[OGL LOG][Proc: 0]p: solve: 52067.2 [ms]
[OGL LOG][Proc: 0]p: copy_x_back: 37.665 [ms]
[OGL LOG][lduLduBase.H:330] 
Statistics:
	Time per iteration: 16347 [mu s]
	Time per residual norm calculation: 311.000000 [mu s]
	Time per iteration and DOF: 0.255422 [ns]
	Retrieve results bandwidth 3.398000 [GByte/s]
[OGL LOG][Proc: 0]p: solve_multi_gpu: 53081.1 [ms]
nonedpcppGKOCG:  Solving for p, Initial residual = 0.853903, Final residual = 9.88642e-05, No Iterations 3185
[INFO] SolveP: 53518.3 [ms]
time step continuity errors : sum local = 6.70547e-09, global = -4.16262e-22, cumulative = -3.60736e-21
[INFO] ContinuityError: 276.521 [ms]
[INFO] CorrectBoundary: 2.859 [ms]
[INFO] PISOStep: 57176.7 [ms]
[INFO] TimeStep: 129440 [ms]
ExecutionTime = 532.53 s  ClockTime = 542 s

Time = 0.000375

Courant Number mean: 0.0170428 max: 0.511105
[INFO] MatrixAssemblyU: 1561.98 [ms]
DILUPBiCGStab:  Solving for Ux, Initial residual = 0.0536957, Final residual = 0.00516235, No Iterations 5
DILUPBiCGStab:  Solving for Uy, Initial residual = 0.261345, Final residual = 0.0236777, No Iterations 5
DILUPBiCGStab:  Solving for Uz, Initial residual = 0.876364, Final residual = 0.0830114, No Iterations 5
[INFO] MomentumPredictor: 13459.6 [ms]
[INFO] MatrixAssemblyPI: 1767.38 [ms]
[INFO] AdjustPhi: 164.708 [ms]
[INFO] ConstrainPressure: 0.002 [ms]
[INFO] MatrixAssemblyPII: 561.919 [ms]
[OGL LOG][Proc: 0]: global_index_init: 0.605 [ms]
[OGL LOG][Proc: 0]p_local_coeffs: call_update: 0 [ms]
[OGL LOG][Proc: 0]p_non_local_coeffs: call_update: 0 [ms]
[OGL LOG][Proc: 0]p: update_local_matrix_data: 363.856 [ms]
[OGL LOG][Proc: 0]p: update_non_local_matrix_data: 2.359 [ms]
[OGL LOG][Proc: 0]p: regenerate_distributed_matrix: 916.301 [ms]
[OGL LOG][Proc: 0]p_matrix: call_update: 921.155 [ms]
[OGL LOG][Proc: 0]p_rhs: call_update: 31.714 [ms]
[OGL LOG][Proc: 0]p: init_precond: 0.044 [ms]
[OGL LOG][StoppingCriterion.H:239] Creating stopping criterion with minIter 1911 frequency 4
[OGL LOG][Proc: 0]p: generate_solver: 0.023 [ms]
[OGL LOG][Proc: 0]p: solve: 31280 [ms]
[OGL LOG][Proc: 0]p: copy_x_back: 39.172 [ms]
[OGL LOG][lduLduBase.H:330] 
Statistics:
	Time per iteration: 16351 [mu s]
	Time per residual norm calculation: 316.000000 [mu s]
	Time per iteration and DOF: 0.255484 [ns]
	Retrieve results bandwidth 3.267000 [GByte/s]
[OGL LOG][Proc: 0]p: solve_multi_gpu: 32277 [ms]
nonedpcppGKOCG:  Solving for p, Initial residual = 0.93854, Final residual = 3.62564e-05, No Iterations 1913
[INFO] SolveP: 32724.2 [ms]
time step continuity errors : sum local = 3.29883e-09, global = 3.18141e-23, cumulative = -3.57555e-21
[INFO] ContinuityError: 264.62 [ms]
[INFO] CorrectBoundary: 2.812 [ms]
[INFO] PISOStep: 36178.4 [ms]
[INFO] MatrixAssemblyPI: 1791.08 [ms]
[INFO] AdjustPhi: 115.054 [ms]
[INFO] ConstrainPressure: 0.002 [ms]
[INFO] MatrixAssemblyPII: 580.991 [ms]
[OGL LOG][Proc: 0]: global_index_init: 0.031 [ms]
[OGL LOG][Proc: 0]p_local_coeffs: call_update: 0 [ms]
[OGL LOG][Proc: 0]p_non_local_coeffs: call_update: 0 [ms]
[OGL LOG][Proc: 0]p: update_local_matrix_data: 375.654 [ms]
[OGL LOG][Proc: 0]p: update_non_local_matrix_data: 2.547 [ms]
[OGL LOG][Proc: 0]p: regenerate_distributed_matrix: 922.284 [ms]
[OGL LOG][Proc: 0]p_matrix: call_update: 927.163 [ms]
[OGL LOG][Proc: 0]p_rhs: call_update: 31.743 [ms]
[OGL LOG][Proc: 0]p: init_precond: 0.048 [ms]
[OGL LOG][StoppingCriterion.H:239] Creating stopping criterion with minIter 1147 frequency 3
[OGL LOG][Proc: 0]p: generate_solver: 0.024 [ms]
[OGL LOG][Proc: 0]p: solve: 25273.3 [ms]
[OGL LOG][Proc: 0]p: copy_x_back: 38.331 [ms]
[OGL LOG][lduLduBase.H:330] 
Statistics:
	Time per iteration: 16411 [mu s]
	Time per residual norm calculation: 283.000000 [mu s]
	Time per iteration and DOF: 0.256422 [ns]
	Retrieve results bandwidth 3.339000 [GByte/s]
[OGL LOG][Proc: 0]p: solve_multi_gpu: 26275.9 [ms]
nonedpcppGKOCG:  Solving for p, Initial residual = 0.90852, Final residual = 9.66629e-05, No Iterations 1540
[INFO] SolveP: 26730.8 [ms]
time step continuity errors : sum local = 8.22883e-09, global = 3.75212e-23, cumulative = -3.53803e-21
[INFO] ContinuityError: 243.818 [ms]
[INFO] CorrectBoundary: 11.211 [ms]
[INFO] PISOStep: 30192.1 [ms]
[INFO] TimeStep: 81610 [ms]
ExecutionTime = 614.17 s  ClockTime = 623 s

Time = 0.0005

Courant Number mean: 0.0206642 max: 0.47762
[INFO] MatrixAssemblyU: 1608.59 [ms]
DILUPBiCGStab:  Solving for Ux, Initial residual = 0.0415523, Final residual = 0.00479308, No Iterations 5
DILUPBiCGStab:  Solving for Uy, Initial residual = 0.213439, Final residual = 0.0223876, No Iterations 5
DILUPBiCGStab:  Solving for Uz, Initial residual = 0.782761, Final residual = 0.0631419, No Iterations 5
[INFO] MomentumPredictor: 13670.4 [ms]
[INFO] MatrixAssemblyPI: 1865.72 [ms]
[INFO] AdjustPhi: 115.763 [ms]
[INFO] ConstrainPressure: 0.002 [ms]
[INFO] MatrixAssemblyPII: 580.84 [ms]
[OGL LOG][Proc: 0]: global_index_init: 0.032 [ms]
[OGL LOG][Proc: 0]p_local_coeffs: call_update: 0 [ms]
[OGL LOG][Proc: 0]p_non_local_coeffs: call_update: 0 [ms]
[OGL LOG][Proc: 0]p: update_local_matrix_data: 361.007 [ms]
[OGL LOG][Proc: 0]p: update_non_local_matrix_data: 2.303 [ms]
[OGL LOG][Proc: 0]p: regenerate_distributed_matrix: 918.178 [ms]
[OGL LOG][Proc: 0]p_matrix: call_update: 922.996 [ms]
[OGL LOG][Proc: 0]p_rhs: call_update: 32.692 [ms]
[OGL LOG][Proc: 0]p: init_precond: 0.045 [ms]
[OGL LOG][StoppingCriterion.H:239] Creating stopping criterion with minIter 924 frequency 3
[OGL LOG][Proc: 0]p: generate_solver: 0.022 [ms]
[OGL LOG][Proc: 0]p: solve: 25203.8 [ms]
[OGL LOG][Proc: 0]p: copy_x_back: 43.232 [ms]
[OGL LOG][lduLduBase.H:330] 
Statistics:
	Time per iteration: 16430 [mu s]
	Time per residual norm calculation: 291.000000 [mu s]
	Time per iteration and DOF: 0.256719 [ns]
	Retrieve results bandwidth 2.960000 [GByte/s]
[OGL LOG][Proc: 0]p: solve_multi_gpu: 26204.3 [ms]
nonedpcppGKOCG:  Solving for p, Initial residual = 0.9348, Final residual = 9.34767e-05, No Iterations 1534
[INFO] SolveP: 26650.2 [ms]
time step continuity errors : sum local = 1.01505e-08, global = 3.94229e-22, cumulative = -3.1438e-21
[INFO] ContinuityError: 230.459 [ms]
[INFO] CorrectBoundary: 22.315 [ms]
[INFO] PISOStep: 30141.4 [ms]
[INFO] MatrixAssemblyPI: 1780.79 [ms]
[INFO] AdjustPhi: 115.852 [ms]
[INFO] ConstrainPressure: 0.002 [ms]
[INFO] MatrixAssemblyPII: 579.533 [ms]
[OGL LOG][Proc: 0]: global_index_init: 0.028 [ms]
[OGL LOG][Proc: 0]p_local_coeffs: call_update: 0 [ms]
[OGL LOG][Proc: 0]p_non_local_coeffs: call_update: 0 [ms]
[OGL LOG][Proc: 0]p: update_local_matrix_data: 372.153 [ms]
[OGL LOG][Proc: 0]p: update_non_local_matrix_data: 1.927 [ms]
[OGL LOG][Proc: 0]p: regenerate_distributed_matrix: 919.171 [ms]
[OGL LOG][Proc: 0]p_matrix: call_update: 923.2 [ms]
[OGL LOG][Proc: 0]p_rhs: call_update: 36.037 [ms]
[OGL LOG][Proc: 0]p: init_precond: 0.049 [ms]
[OGL LOG][StoppingCriterion.H:239] Creating stopping criterion with minIter 920 frequency 3
[OGL LOG][Proc: 0]p: generate_solver: 0.024 [ms]
[OGL LOG][Proc: 0]p: solve: 24933.4 [ms]
[OGL LOG][Proc: 0]p: copy_x_back: 37.496 [ms]
[OGL LOG][lduLduBase.H:330] 
Statistics:
	Time per iteration: 16479 [mu s]
	Time per residual norm calculation: 315.000000 [mu s]
	Time per iteration and DOF: 0.257484 [ns]
	Retrieve results bandwidth 3.413000 [GByte/s]
[OGL LOG][Proc: 0]p: solve_multi_gpu: 25938.5 [ms]
nonedpcppGKOCG:  Solving for p, Initial residual = 0.878432, Final residual = 9.86679e-05, No Iterations 1513
[INFO] SolveP: 26393.1 [ms]
time step continuity errors : sum local = 1.05791e-08, global = 1.94917e-22, cumulative = -2.94888e-21
[INFO] ContinuityError: 281.866 [ms]
[INFO] CorrectBoundary: 2.652 [ms]
[INFO] PISOStep: 29810.5 [ms]
[INFO] TimeStep: 75452.1 [ms]
ExecutionTime = 689.65 s  ClockTime = 699 s

Time = 0.000625

Courant Number mean: 0.0237602 max: 0.554942
[INFO] MatrixAssemblyU: 1568.06 [ms]
DILUPBiCGStab:  Solving for Ux, Initial residual = 0.0375562, Final residual = 0.0043376, No Iterations 5
DILUPBiCGStab:  Solving for Uy, Initial residual = 0.183827, Final residual = 0.0189433, No Iterations 5
DILUPBiCGStab:  Solving for Uz, Initial residual = 0.75288, Final residual = 0.054372, No Iterations 5
[INFO] MomentumPredictor: 13363.4 [ms]
[INFO] MatrixAssemblyPI: 1775.88 [ms]
[INFO] AdjustPhi: 170.318 [ms]
[INFO] ConstrainPressure: 0.003 [ms]
[INFO] MatrixAssemblyPII: 579.562 [ms]
[OGL LOG][Proc: 0]: global_index_init: 0.606 [ms]
[OGL LOG][Proc: 0]p_local_coeffs: call_update: 0 [ms]
[OGL LOG][Proc: 0]p_non_local_coeffs: call_update: 0 [ms]
[OGL LOG][Proc: 0]p: update_local_matrix_data: 364.529 [ms]
[OGL LOG][Proc: 0]p: update_non_local_matrix_data: 2.447 [ms]
[OGL LOG][Proc: 0]p: regenerate_distributed_matrix: 914.243 [ms]
[OGL LOG][Proc: 0]p_matrix: call_update: 918.323 [ms]
[OGL LOG][Proc: 0]p_rhs: call_update: 36.409 [ms]
[OGL LOG][Proc: 0]p: init_precond: 0.051 [ms]
[OGL LOG][StoppingCriterion.H:239] Creating stopping criterion with minIter 907 frequency 3
[OGL LOG][Proc: 0]p: generate_solver: 0.026 [ms]
[OGL LOG][Proc: 0]p: solve: 51028.8 [ms]
[OGL LOG][Proc: 0]p: copy_x_back: 41.755 [ms]
[OGL LOG][lduLduBase.H:330] 
Statistics:
	Time per iteration: 16397 [mu s]
	Time per residual norm calculation: 294.000000 [mu s]
	Time per iteration and DOF: 0.256203 [ns]
	Retrieve results bandwidth 3.065000 [GByte/s]
[OGL LOG][Proc: 0]p: solve_multi_gpu: 52028.2 [ms]
nonedpcppGKOCG:  Solving for p, Initial residual = 0.952402, Final residual = 9.99943e-05, No Iterations 3112
[INFO] SolveP: 52476.4 [ms]
time step continuity errors : sum local = 1.20197e-08, global = 2.4027e-22, cumulative = -2.70861e-21
[INFO] ContinuityError: 274.115 [ms]
[INFO] CorrectBoundary: 8.053 [ms]
[INFO] PISOStep: 56043.7 [ms]
[INFO] MatrixAssemblyPI: 1744.43 [ms]
[INFO] AdjustPhi: 156.829 [ms]
[INFO] ConstrainPressure: 0.002 [ms]
[INFO] MatrixAssemblyPII: 568.302 [ms]
[OGL LOG][Proc: 0]: global_index_init: 0.454 [ms]
[OGL LOG][Proc: 0]p_local_coeffs: call_update: 0 [ms]
[OGL LOG][Proc: 0]p_non_local_coeffs: call_update: 0 [ms]
[OGL LOG][Proc: 0]p: update_local_matrix_data: 365.386 [ms]
[OGL LOG][Proc: 0]p: update_non_local_matrix_data: 2.245 [ms]
[OGL LOG][Proc: 0]p: regenerate_distributed_matrix: 914.974 [ms]
[OGL LOG][Proc: 0]p_matrix: call_update: 919.692 [ms]
[OGL LOG][Proc: 0]p_rhs: call_update: 33.88 [ms]
[OGL LOG][Proc: 0]p: init_precond: 0.051 [ms]
[OGL LOG][StoppingCriterion.H:239] Creating stopping criterion with minIter 1867 frequency 4
[OGL LOG][Proc: 0]p: generate_solver: 0.024 [ms]
[OGL LOG][Proc: 0]p: solve: 50484.8 [ms]
[OGL LOG][Proc: 0]p: copy_x_back: 41.807 [ms]
[OGL LOG][lduLduBase.H:330] 
Statistics:
	Time per iteration: 16322 [mu s]
	Time per residual norm calculation: 298.000000 [mu s]
	Time per iteration and DOF: 0.255031 [ns]
	Retrieve results bandwidth 3.061000 [GByte/s]
[OGL LOG][Proc: 0]p: solve_multi_gpu: 51481.8 [ms]
nonedpcppGKOCG:  Solving for p, Initial residual = 0.915193, Final residual = 9.97072e-05, No Iterations 3093
[INFO] SolveP: 51930.1 [ms]
time step continuity errors : sum local = 1.19118e-08, global = -6.24263e-24, cumulative = -2.71486e-21
[INFO] ContinuityError: 244.054 [ms]
[INFO] CorrectBoundary: 2.793 [ms]
[INFO] PISOStep: 55411 [ms]
[INFO] TimeStep: 126604 [ms]
ExecutionTime = 816.33 s  ClockTime = 825 s

Time = 0.00075

Courant Number mean: 0.0261088 max: 0.483317
[INFO] MatrixAssemblyU: 1570.26 [ms]
DILUPBiCGStab:  Solving for Ux, Initial residual = 0.0353085, Final residual = 0.00405726, No Iterations 5
DILUPBiCGStab:  Solving for Uy, Initial residual = 0.170662, Final residual = 0.0158751, No Iterations 5
DILUPBiCGStab:  Solving for Uz, Initial residual = 0.693307, Final residual = 0.0448357, No Iterations 5
[INFO] MomentumPredictor: 13427.4 [ms]
[INFO] MatrixAssemblyPI: 1769.6 [ms]
[INFO] AdjustPhi: 228.489 [ms]
[INFO] ConstrainPressure: 0.002 [ms]
[INFO] MatrixAssemblyPII: 565.222 [ms]
[OGL LOG][Proc: 0]: global_index_init: 0.16 [ms]
[OGL LOG][Proc: 0]p_local_coeffs: call_update: 0 [ms]
[OGL LOG][Proc: 0]p_non_local_coeffs: call_update: 0 [ms]
[OGL LOG][Proc: 0]p: update_local_matrix_data: 363.632 [ms]
[OGL LOG][Proc: 0]p: update_non_local_matrix_data: 2.227 [ms]
[OGL LOG][Proc: 0]p: regenerate_distributed_matrix: 914.08 [ms]
[OGL LOG][Proc: 0]p_matrix: call_update: 919.01 [ms]
[OGL LOG][Proc: 0]p_rhs: call_update: 32.583 [ms]
[OGL LOG][Proc: 0]p: init_precond: 0.049 [ms]
[OGL LOG][StoppingCriterion.H:239] Creating stopping criterion with minIter 1855 frequency 4
[OGL LOG][Proc: 0]p: generate_solver: 0.03 [ms]
[OGL LOG][Proc: 0]p: solve: 50611.5 [ms]
[OGL LOG][Proc: 0]p: copy_x_back: 37.861 [ms]
[OGL LOG][lduLduBase.H:330] 
Statistics:
	Time per iteration: 16299 [mu s]
	Time per residual norm calculation: 299.000000 [mu s]
	Time per iteration and DOF: 0.254672 [ns]
	Retrieve results bandwidth 3.380000 [GByte/s]
[OGL LOG][Proc: 0]p: solve_multi_gpu: 51603 [ms]
nonedpcppGKOCG:  Solving for p, Initial residual = 0.949264, Final residual = 9.97414e-05, No Iterations 3105
[INFO] SolveP: 52049.6 [ms]
time step continuity errors : sum local = 1.38549e-08, global = 1.42888e-21, cumulative = -1.28597e-21
[INFO] ContinuityError: 227.113 [ms]
[INFO] CorrectBoundary: 3.914 [ms]
[INFO] PISOStep: 55515 [ms]
[INFO] MatrixAssemblyPI: 1747.7 [ms]
[INFO] AdjustPhi: 156.384 [ms]
[INFO] ConstrainPressure: 0.002 [ms]
[INFO] MatrixAssemblyPII: 602.268 [ms]
[OGL LOG][Proc: 0]: global_index_init: 0.584 [ms]
[OGL LOG][Proc: 0]p_local_coeffs: call_update: 0 [ms]
[OGL LOG][Proc: 0]p_non_local_coeffs: call_update: 0 [ms]
[OGL LOG][Proc: 0]p: update_local_matrix_data: 365.941 [ms]
[OGL LOG][Proc: 0]p: update_non_local_matrix_data: 2.365 [ms]
[OGL LOG][Proc: 0]p: regenerate_distributed_matrix: 919.016 [ms]
[OGL LOG][Proc: 0]p_matrix: call_update: 923.785 [ms]
[OGL LOG][Proc: 0]p_rhs: call_update: 34.406 [ms]
[OGL LOG][Proc: 0]p: init_precond: 0.052 [ms]
[OGL LOG][StoppingCriterion.H:239] Creating stopping criterion with minIter 1863 frequency 4
[OGL LOG][Proc: 0]p: generate_solver: 0.027 [ms]
[OGL LOG][Proc: 0]p: solve: 50582.9 [ms]
[OGL LOG][Proc: 0]p: copy_x_back: 37.957 [ms]
[OGL LOG][lduLduBase.H:330] 
Statistics:
	Time per iteration: 16332 [mu s]
	Time per residual norm calculation: 295.000000 [mu s]
	Time per iteration and DOF: 0.255188 [ns]
	Retrieve results bandwidth 3.372000 [GByte/s]
[OGL LOG][Proc: 0]p: solve_multi_gpu: 51581.8 [ms]
nonedpcppGKOCG:  Solving for p, Initial residual = 0.89021, Final residual = 9.84031e-05, No Iterations 3097
[INFO] SolveP: 52031 [ms]
time step continuity errors : sum local = 1.38899e-08, global = -1.70412e-23, cumulative = -1.30302e-21
[INFO] ContinuityError: 227.622 [ms]
[INFO] CorrectBoundary: 4.695 [ms]
[INFO] PISOStep: 55428.2 [ms]
[INFO] TimeStep: 126157 [ms]
ExecutionTime = 942.56 s  ClockTime = 951 s

Time = 0.000875

Courant Number mean: 0.028333 max: 0.610887
[INFO] MatrixAssemblyU: 1570.99 [ms]
DILUPBiCGStab:  Solving for Ux, Initial residual = 0.0349745, Final residual = 0.00383614, No Iterations 5
DILUPBiCGStab:  Solving for Uy, Initial residual = 0.17546, Final residual = 0.0151681, No Iterations 5
DILUPBiCGStab:  Solving for Uz, Initial residual = 0.690655, Final residual = 0.040341, No Iterations 5
[INFO] MomentumPredictor: 13455 [ms]
[INFO] MatrixAssemblyPI: 1794.51 [ms]
[INFO] AdjustPhi: 160.045 [ms]
[INFO] ConstrainPressure: 0.002 [ms]
[INFO] MatrixAssemblyPII: 604.1 [ms]
[OGL LOG][Proc: 0]: global_index_init: 0.203 [ms]
[OGL LOG][Proc: 0]p_local_coeffs: call_update: 0 [ms]
[OGL LOG][Proc: 0]p_non_local_coeffs: call_update: 0 [ms]
[OGL LOG][Proc: 0]p: update_local_matrix_data: 360.49 [ms]
[OGL LOG][Proc: 0]p: update_non_local_matrix_data: 2.353 [ms]
[OGL LOG][Proc: 0]p: regenerate_distributed_matrix: 914.212 [ms]
[OGL LOG][Proc: 0]p_matrix: call_update: 918.817 [ms]
[OGL LOG][Proc: 0]p_rhs: call_update: 32.806 [ms]
[OGL LOG][Proc: 0]p: init_precond: 0.044 [ms]
[OGL LOG][StoppingCriterion.H:239] Creating stopping criterion with minIter 1858 frequency 4
[OGL LOG][Proc: 0]p: generate_solver: 0.021 [ms]
[OGL LOG][Proc: 0]p: solve: 50490.3 [ms]
[OGL LOG][Proc: 0]p: copy_x_back: 37.829 [ms]
[OGL LOG][lduLduBase.H:330] 
Statistics:
	Time per iteration: 16345 [mu s]
	Time per residual norm calculation: 326.000000 [mu s]
	Time per iteration and DOF: 0.255391 [ns]
	Retrieve results bandwidth 3.383000 [GByte/s]
[OGL LOG][Proc: 0]p: solve_multi_gpu: 51488.5 [ms]
nonedpcppGKOCG:  Solving for p, Initial residual = 0.960679, Final residual = 9.61268e-05, No Iterations 3089
[INFO] SolveP: 51931.9 [ms]
time step continuity errors : sum local = 1.51476e-08, global = 2.15487e-23, cumulative = -1.28147e-21
[INFO] ContinuityError: 285.553 [ms]
[INFO] CorrectBoundary: 11.8 [ms]
[INFO] PISOStep: 55505.9 [ms]
[INFO] MatrixAssemblyPI: 1758.39 [ms]
[INFO] AdjustPhi: 153.678 [ms]
[INFO] ConstrainPressure: 0.002 [ms]
[INFO] MatrixAssemblyPII: 579.903 [ms]
[OGL LOG][Proc: 0]: global_index_init: 0.663 [ms]
[OGL LOG][Proc: 0]p_local_coeffs: call_update: 0 [ms]
[OGL LOG][Proc: 0]p_non_local_coeffs: call_update: 0 [ms]
[OGL LOG][Proc: 0]p: update_local_matrix_data: 360.893 [ms]
[OGL LOG][Proc: 0]p: update_non_local_matrix_data: 2.359 [ms]
[OGL LOG][Proc: 0]p: regenerate_distributed_matrix: 950.969 [ms]
[OGL LOG][Proc: 0]p_matrix: call_update: 955.973 [ms]
[OGL LOG][Proc: 0]p_rhs: call_update: 32.03 [ms]
[OGL LOG][Proc: 0]p: init_precond: 0.047 [ms]
[OGL LOG][StoppingCriterion.H:239] Creating stopping criterion with minIter 1853 frequency 4
[OGL LOG][Proc: 0]p: generate_solver: 0.023 [ms]
[OGL LOG][Proc: 0]p: solve: 50417.8 [ms]
[OGL LOG][Proc: 0]p: copy_x_back: 41.61 [ms]
[OGL LOG][lduLduBase.H:330] 
Statistics:
	Time per iteration: 16342 [mu s]
	Time per residual norm calculation: 305.000000 [mu s]
	Time per iteration and DOF: 0.255344 [ns]
	Retrieve results bandwidth 3.076000 [GByte/s]
[OGL LOG][Proc: 0]p: solve_multi_gpu: 51452.6 [ms]
nonedpcppGKOCG:  Solving for p, Initial residual = 0.91754, Final residual = 9.73277e-05, No Iterations 3085
[INFO] SolveP: 51897.2 [ms]
time step continuity errors : sum local = 1.52795e-08, global = -6.21713e-22, cumulative = -1.90318e-21
[INFO] ContinuityError: 276.58 [ms]
[INFO] CorrectBoundary: 9.12 [ms]
[INFO] PISOStep: 55419.2 [ms]
[INFO] TimeStep: 126168 [ms]
ExecutionTime = 1068.79 s  ClockTime = 1078 s

Time = 0.001

Courant Number mean: 0.0300977 max: 0.490932
[INFO] MatrixAssemblyU: 1567.28 [ms]
DILUPBiCGStab:  Solving for Ux, Initial residual = 0.0361269, Final residual = 0.0036992, No Iterations 5
DILUPBiCGStab:  Solving for Uy, Initial residual = 0.169173, Final residual = 0.0130618, No Iterations 5
DILUPBiCGStab:  Solving for Uz, Initial residual = 0.677685, Final residual = 0.0375721, No Iterations 5
[INFO] MomentumPredictor: 13465.5 [ms]
[INFO] MatrixAssemblyPI: 1790.91 [ms]
[INFO] AdjustPhi: 137.454 [ms]
[INFO] ConstrainPressure: 0.003 [ms]
[INFO] MatrixAssemblyPII: 609.43 [ms]
[OGL LOG][Proc: 0]: global_index_init: 0.268 [ms]
[OGL LOG][Proc: 0]p_local_coeffs: call_update: 0 [ms]
[OGL LOG][Proc: 0]p_non_local_coeffs: call_update: 0 [ms]
[OGL LOG][Proc: 0]p: update_local_matrix_data: 370.11 [ms]
[OGL LOG][Proc: 0]p: update_non_local_matrix_data: 2.445 [ms]
[OGL LOG][Proc: 0]p: regenerate_distributed_matrix: 1084.94 [ms]
[OGL LOG][Proc: 0]p_matrix: call_update: 1089.03 [ms]
[OGL LOG][Proc: 0]p_rhs: call_update: 35.733 [ms]
[OGL LOG][Proc: 0]p: init_precond: 0.055 [ms]
[OGL LOG][StoppingCriterion.H:239] Creating stopping criterion with minIter 1851 frequency 4
[OGL LOG][Proc: 0]p: generate_solver: 0.026 [ms]
[OGL LOG][Proc: 0]p: solve: 50276.5 [ms]
[OGL LOG][Proc: 0]p: copy_x_back: 40.669 [ms]
[OGL LOG][lduLduBase.H:330] 
Statistics:
	Time per iteration: 16318 [mu s]
	Time per residual norm calculation: 355.000000 [mu s]
	Time per iteration and DOF: 0.254969 [ns]
	Retrieve results bandwidth 3.147000 [GByte/s]
[OGL LOG][Proc: 0]p: solve_multi_gpu: 51443.8 [ms]
nonedpcppGKOCG:  Solving for p, Initial residual = 0.958515, Final residual = 9.80854e-05, No Iterations 3081
[INFO] SolveP: 51898 [ms]
time step continuity errors : sum local = 1.78124e-08, global = -1.98068e-22, cumulative = -2.10125e-21
[INFO] ContinuityError: 226.69 [ms]
[INFO] CorrectBoundary: 3.628 [ms]
[INFO] PISOStep: 55325.9 [ms]
[INFO] MatrixAssemblyPI: 1790.49 [ms]
[INFO] AdjustPhi: 175.763 [ms]
[INFO] ConstrainPressure: 0.002 [ms]
[INFO] MatrixAssemblyPII: 603.315 [ms]
[OGL LOG][Proc: 0]: global_index_init: 0.561 [ms]
[OGL LOG][Proc: 0]p_local_coeffs: call_update: 0 [ms]
[OGL LOG][Proc: 0]p_non_local_coeffs: call_update: 0 [ms]
[OGL LOG][Proc: 0]p: update_local_matrix_data: 367.267 [ms]
[OGL LOG][Proc: 0]p: update_non_local_matrix_data: 2.36 [ms]
[OGL LOG][Proc: 0]p: regenerate_distributed_matrix: 1087.7 [ms]
[OGL LOG][Proc: 0]p_matrix: call_update: 1092.77 [ms]
[OGL LOG][Proc: 0]p_rhs: call_update: 32.301 [ms]
[OGL LOG][Proc: 0]p: init_precond: 0.043 [ms]
[OGL LOG][StoppingCriterion.H:239] Creating stopping criterion with minIter 1848 frequency 5
[OGL LOG][Proc: 0]p: generate_solver: 0.022 [ms]
[OGL LOG][Proc: 0]p: solve: 50318.5 [ms]
[OGL LOG][Proc: 0]p: copy_x_back: 37.872 [ms]
[OGL LOG][lduLduBase.H:330] 
Statistics:
	Time per iteration: 16358 [mu s]
	Time per residual norm calculation: 304.000000 [mu s]
	Time per iteration and DOF: 0.255594 [ns]
	Retrieve results bandwidth 3.379000 [GByte/s]
[OGL LOG][Proc: 0]p: solve_multi_gpu: 51489.1 [ms]
nonedpcppGKOCG:  Solving for p, Initial residual = 0.897396, Final residual = 9.58079e-05, No Iterations 3076
[INFO] SolveP: 51940.3 [ms]
time step continuity errors : sum local = 1.76615e-08, global = 5.7217e-22, cumulative = -1.52908e-21
[INFO] ContinuityError: 281.994 [ms]
[INFO] CorrectBoundary: 66.675 [ms]
[INFO] PISOStep: 55518.2 [ms]
[INFO] TimeStep: 126093 [ms]
ExecutionTime = 1194.95 s  ClockTime = 1204 s

Time = 0.001125

Courant Number mean: 0.0319278 max: 0.694601
[INFO] MatrixAssemblyU: 1569.16 [ms]
DILUPBiCGStab:  Solving for Ux, Initial residual = 0.0373765, Final residual = 0.00350128, No Iterations 5
DILUPBiCGStab:  Solving for Uy, Initial residual = 0.186156, Final residual = 0.0135541, No Iterations 5
DILUPBiCGStab:  Solving for Uz, Initial residual = 0.689946, Final residual = 0.0359706, No Iterations 5
[INFO] MomentumPredictor: 13512.6 [ms]
[INFO] MatrixAssemblyPI: 1800.94 [ms]
[INFO] AdjustPhi: 132.031 [ms]
[INFO] ConstrainPressure: 0.002 [ms]
[INFO] MatrixAssemblyPII: 605.434 [ms]
[OGL LOG][Proc: 0]: global_index_init: 0.358 [ms]
[OGL LOG][Proc: 0]p_local_coeffs: call_update: 0 [ms]
[OGL LOG][Proc: 0]p_non_local_coeffs: call_update: 0 [ms]
[OGL LOG][Proc: 0]p: update_local_matrix_data: 369.306 [ms]
[OGL LOG][Proc: 0]p: update_non_local_matrix_data: 2.238 [ms]
[OGL LOG][Proc: 0]p: regenerate_distributed_matrix: 956.366 [ms]
[OGL LOG][Proc: 0]p_matrix: call_update: 961.28 [ms]
[OGL LOG][Proc: 0]p_rhs: call_update: 33.353 [ms]
[OGL LOG][Proc: 0]p: init_precond: 0.056 [ms]
[OGL LOG][StoppingCriterion.H:239] Creating stopping criterion with minIter 1845 frequency 4
[OGL LOG][Proc: 0]p: generate_solver: 0.026 [ms]
[OGL LOG][Proc: 0]p: solve: 50372 [ms]
[OGL LOG][Proc: 0]p: copy_x_back: 41.622 [ms]
[OGL LOG][lduLduBase.H:330] 
Statistics:
	Time per iteration: 16328 [mu s]
	Time per residual norm calculation: 326.000000 [mu s]
	Time per iteration and DOF: 0.255125 [ns]
	Retrieve results bandwidth 3.075000 [GByte/s]
[OGL LOG][Proc: 0]p: solve_multi_gpu: 51411.5 [ms]
nonedpcppGKOCG:  Solving for p, Initial residual = 0.966814, Final residual = 9.74332e-05, No Iterations 3085
[INFO] SolveP: 51864.1 [ms]
time step continuity errors : sum local = 2.0356e-08, global = 1.63439e-22, cumulative = -1.36564e-21
[INFO] ContinuityError: 282.142 [ms]
[INFO] CorrectBoundary: 56.986 [ms]
[INFO] PISOStep: 55399.1 [ms]
[INFO] MatrixAssemblyPI: 1745.73 [ms]
[INFO] AdjustPhi: 181.218 [ms]
[INFO] ConstrainPressure: 0.002 [ms]
[INFO] MatrixAssemblyPII: 568.711 [ms]
[OGL LOG][Proc: 0]: global_index_init: 0.491 [ms]
[OGL LOG][Proc: 0]p_local_coeffs: call_update: 0 [ms]
[OGL LOG][Proc: 0]p_non_local_coeffs: call_update: 0 [ms]
[OGL LOG][Proc: 0]p: update_local_matrix_data: 368.075 [ms]
[OGL LOG][Proc: 0]p: update_non_local_matrix_data: 2.674 [ms]
[OGL LOG][Proc: 0]p: regenerate_distributed_matrix: 916.377 [ms]
[OGL LOG][Proc: 0]p_matrix: call_update: 920.374 [ms]
[OGL LOG][Proc: 0]p_rhs: call_update: 37.018 [ms]
[OGL LOG][Proc: 0]p: init_precond: 0.051 [ms]
[OGL LOG][StoppingCriterion.H:239] Creating stopping criterion with minIter 1851 frequency 4
[OGL LOG][Proc: 0]p: generate_solver: 0.024 [ms]
[OGL LOG][Proc: 0]p: solve: 50361.1 [ms]
[OGL LOG][Proc: 0]p: copy_x_back: 41.653 [ms]
[OGL LOG][lduLduBase.H:330] 
Statistics:
	Time per iteration: 16366 [mu s]
	Time per residual norm calculation: 310.000000 [mu s]
	Time per iteration and DOF: 0.255719 [ns]
	Retrieve results bandwidth 3.073000 [GByte/s]
[OGL LOG][Proc: 0]p: solve_multi_gpu: 51363.6 [ms]
nonedpcppGKOCG:  Solving for p, Initial residual = 0.918723, Final residual = 9.91926e-05, No Iterations 3077
[INFO] SolveP: 51815.7 [ms]
time step continuity errors : sum local = 2.06953e-08, global = -3.27641e-24, cumulative = -1.36892e-21
[INFO] ContinuityError: 247.934 [ms]
[INFO] CorrectBoundary: 2.866 [ms]
[INFO] PISOStep: 55328.8 [ms]
[INFO] TimeStep: 126027 [ms]
ExecutionTime = 1321.04 s  ClockTime = 1330 s

Time = 0.00125

Courant Number mean: 0.033355 max: 0.50697
[INFO] MatrixAssemblyU: 1572.49 [ms]
DILUPBiCGStab:  Solving for Ux, Initial residual = 0.0408366, Final residual = 0.00356796, No Iterations 5
DILUPBiCGStab:  Solving for Uy, Initial residual = 0.18512, Final residual = 0.0119596, No Iterations 5
DILUPBiCGStab:  Solving for Uz, Initial residual = 0.690546, Final residual = 0.03462, No Iterations 5
[INFO] MomentumPredictor: 13496.6 [ms]
[INFO] MatrixAssemblyPI: 1777 [ms]
[INFO] AdjustPhi: 158.155 [ms]
[INFO] ConstrainPressure: 0.002 [ms]
[INFO] MatrixAssemblyPII: 566.978 [ms]
[OGL LOG][Proc: 0]: global_index_init: 0.266 [ms]
[OGL LOG][Proc: 0]p_local_coeffs: call_update: 0 [ms]
[OGL LOG][Proc: 0]p_non_local_coeffs: call_update: 0 [ms]
[OGL LOG][Proc: 0]p: update_local_matrix_data: 369.681 [ms]
[OGL LOG][Proc: 0]p: update_non_local_matrix_data: 2.32 [ms]
[OGL LOG][Proc: 0]p: regenerate_distributed_matrix: 923.604 [ms]
[OGL LOG][Proc: 0]p_matrix: call_update: 928.475 [ms]
[OGL LOG][Proc: 0]p_rhs: call_update: 32.083 [ms]
[OGL LOG][Proc: 0]p: init_precond: 0.047 [ms]
[OGL LOG][StoppingCriterion.H:239] Creating stopping criterion with minIter 1846 frequency 4
[OGL LOG][Proc: 0]p: generate_solver: 0.025 [ms]
[OGL LOG][Proc: 0]p: solve: 50364.3 [ms]
[OGL LOG][Proc: 0]p: copy_x_back: 41.45 [ms]
[OGL LOG][lduLduBase.H:330] 
Statistics:
	Time per iteration: 16367 [mu s]
	Time per residual norm calculation: 326.000000 [mu s]
	Time per iteration and DOF: 0.255734 [ns]
	Retrieve results bandwidth 3.088000 [GByte/s]
[OGL LOG][Proc: 0]p: solve_multi_gpu: 51370.8 [ms]
nonedpcppGKOCG:  Solving for p, Initial residual = 0.966232, Final residual = 9.93543e-05, No Iterations 3077
[INFO] SolveP: 51823.7 [ms]
time step continuity errors : sum local = 2.42575e-08, global = 7.20681e-23, cumulative = -1.29685e-21
[INFO] ContinuityError: 253.733 [ms]
[INFO] CorrectBoundary: 2.679 [ms]
[INFO] PISOStep: 55346.8 [ms]
[INFO] MatrixAssemblyPI: 1749.23 [ms]
[INFO] AdjustPhi: 218.525 [ms]
[INFO] ConstrainPressure: 0.002 [ms]
[INFO] MatrixAssemblyPII: 564.945 [ms]
[OGL LOG][Proc: 0]: global_index_init: 0.907 [ms]
[OGL LOG][Proc: 0]p_local_coeffs: call_update: 0 [ms]
[OGL LOG][Proc: 0]p_non_local_coeffs: call_update: 0 [ms]
[OGL LOG][Proc: 0]p: update_local_matrix_data: 361.828 [ms]
[OGL LOG][Proc: 0]p: update_non_local_matrix_data: 2.766 [ms]
[OGL LOG][Proc: 0]p: regenerate_distributed_matrix: 918.817 [ms]
[OGL LOG][Proc: 0]p_matrix: call_update: 923.538 [ms]
[OGL LOG][Proc: 0]p_rhs: call_update: 32.333 [ms]
[OGL LOG][Proc: 0]p: init_precond: 0.046 [ms]
[OGL LOG][StoppingCriterion.H:239] Creating stopping criterion with minIter 1846 frequency 4
[OGL LOG][Proc: 0]p: generate_solver: 0.021 [ms]
[OGL LOG][Proc: 0]p: solve: 50305.7 [ms]
[OGL LOG][Proc: 0]p: copy_x_back: 37.833 [ms]
[OGL LOG][lduLduBase.H:330] 
Statistics:
	Time per iteration: 16348 [mu s]
	Time per residual norm calculation: 308.000000 [mu s]
	Time per iteration and DOF: 0.255437 [ns]
	Retrieve results bandwidth 3.383000 [GByte/s]
[OGL LOG][Proc: 0]p: solve_multi_gpu: 51310.1 [ms]
nonedpcppGKOCG:  Solving for p, Initial residual = 0.90343, Final residual = 9.75551e-05, No Iterations 3077
[INFO] SolveP: 51755.9 [ms]
time step continuity errors : sum local = 2.41434e-08, global = 5.97509e-22, cumulative = -6.99339e-22
[INFO] ContinuityError: 276.913 [ms]
[INFO] CorrectBoundary: 9.44 [ms]
[INFO] PISOStep: 55321.8 [ms]
[INFO] TimeStep: 125955 [ms]
ExecutionTime = 1447.07 s  ClockTime = 1456 s

Time = 0.001375

Courant Number mean: 0.0349782 max: 0.825798
[INFO] MatrixAssemblyU: 1560.74 [ms]
DILUPBiCGStab:  Solving for Ux, Initial residual = 0.0436156, Final residual = 0.00342108, No Iterations 5
DILUPBiCGStab:  Solving for Uy, Initial residual = 0.209173, Final residual = 0.0129876, No Iterations 5
DILUPBiCGStab:  Solving for Uz, Initial residual = 0.705615, Final residual = 0.0341665, No Iterations 5
[INFO] MomentumPredictor: 13512.2 [ms]
[INFO] MatrixAssemblyPI: 1765.55 [ms]
[INFO] AdjustPhi: 137.276 [ms]
[INFO] ConstrainPressure: 0.002 [ms]
[INFO] MatrixAssemblyPII: 563.177 [ms]
[OGL LOG][Proc: 0]: global_index_init: 0.591 [ms]
[OGL LOG][Proc: 0]p_local_coeffs: call_update: 0 [ms]
[OGL LOG][Proc: 0]p_non_local_coeffs: call_update: 0 [ms]
[OGL LOG][Proc: 0]p: update_local_matrix_data: 367.458 [ms]
[OGL LOG][Proc: 0]p: update_non_local_matrix_data: 2.385 [ms]
[OGL LOG][Proc: 0]p: regenerate_distributed_matrix: 1076.9 [ms]
[OGL LOG][Proc: 0]p_matrix: call_update: 1081.78 [ms]
[OGL LOG][Proc: 0]p_rhs: call_update: 33.92 [ms]
[OGL LOG][Proc: 0]p: init_precond: 0.049 [ms]
[OGL LOG][StoppingCriterion.H:239] Creating stopping criterion with minIter 1846 frequency 4
[OGL LOG][Proc: 0]p: generate_solver: 0.026 [ms]
[OGL LOG][Proc: 0]p: solve: 50026.6 [ms]
[OGL LOG][Proc: 0]p: copy_x_back: 41.515 [ms]
[OGL LOG][lduLduBase.H:330] 
Statistics:
	Time per iteration: 16258 [mu s]
	Time per residual norm calculation: 294.000000 [mu s]
	Time per iteration and DOF: 0.254031 [ns]
	Retrieve results bandwidth 3.083000 [GByte/s]
[OGL LOG][Proc: 0]p: solve_multi_gpu: 51187 [ms]
nonedpcppGKOCG:  Solving for p, Initial residual = 0.972005, Final residual = 9.44689e-05, No Iterations 3077
[INFO] SolveP: 51638 [ms]
time step continuity errors : sum local = 2.68736e-08, global = 1.64473e-21, cumulative = 9.45387e-22
[INFO] ContinuityError: 223.962 [ms]
[INFO] CorrectBoundary: 2.691 [ms]
[INFO] PISOStep: 54993.3 [ms]
[INFO] MatrixAssemblyPI: 1740.62 [ms]
[INFO] AdjustPhi: 164.26 [ms]
[INFO] ConstrainPressure: 0.005 [ms]
[INFO] MatrixAssemblyPII: 582.364 [ms]
[OGL LOG][Proc: 0]: global_index_init: 2.686 [ms]
[OGL LOG][Proc: 0]p_local_coeffs: call_update: 0 [ms]
[OGL LOG][Proc: 0]p_non_local_coeffs: call_update: 0 [ms]
[OGL LOG][Proc: 0]p: update_local_matrix_data: 353.017 [ms]
[OGL LOG][Proc: 0]p: update_non_local_matrix_data: 2.262 [ms]
[OGL LOG][Proc: 0]p: regenerate_distributed_matrix: 1084.86 [ms]
[OGL LOG][Proc: 0]p_matrix: call_update: 1089.91 [ms]
[OGL LOG][Proc: 0]p_rhs: call_update: 31.958 [ms]
[OGL LOG][Proc: 0]p: init_precond: 0.04 [ms]
[OGL LOG][StoppingCriterion.H:239] Creating stopping criterion with minIter 1846 frequency 4
[OGL LOG][Proc: 0]p: generate_solver: 0.02 [ms]
[OGL LOG][Proc: 0]p: solve: 50194.9 [ms]
[OGL LOG][Proc: 0]p: copy_x_back: 37.629 [ms]
[OGL LOG][lduLduBase.H:330] 
Statistics:
	Time per iteration: 16355 [mu s]
	Time per residual norm calculation: 296.000000 [mu s]
	Time per iteration and DOF: 0.255547 [ns]
	Retrieve results bandwidth 3.401000 [GByte/s]
[OGL LOG][Proc: 0]p: solve_multi_gpu: 51390.2 [ms]
nonedpcppGKOCG:  Solving for p, Initial residual = 0.919793, Final residual = 9.97654e-05, No Iterations 3069
[INFO] SolveP: 51828.2 [ms]
time step continuity errors : sum local = 2.83998e-08, global = 3.84081e-22, cumulative = 1.32947e-21
[INFO] ContinuityError: 271.671 [ms]
[INFO] CorrectBoundary: 7.95 [ms]
[INFO] PISOStep: 55356.6 [ms]
[INFO] TimeStep: 125648 [ms]
ExecutionTime = 1572.79 s  ClockTime = 1581 s

Time = 0.0015

Courant Number mean: 0.0361865 max: 0.599993
[INFO] MatrixAssemblyU: 1564.16 [ms]
DILUPBiCGStab:  Solving for Ux, Initial residual = 0.0492179, Final residual = 0.00362368, No Iterations 5
DILUPBiCGStab:  Solving for Uy, Initial residual = 0.213789, Final residual = 0.0119316, No Iterations 5
DILUPBiCGStab:  Solving for Uz, Initial residual = 0.71004, Final residual = 0.0337314, No Iterations 5
[INFO] MomentumPredictor: 13309.4 [ms]
[INFO] MatrixAssemblyPI: 1765.29 [ms]
[INFO] AdjustPhi: 134.225 [ms]
[INFO] ConstrainPressure: 0.002 [ms]
[INFO] MatrixAssemblyPII: 562.994 [ms]
[OGL LOG][Proc: 0]: global_index_init: 0.571 [ms]
[OGL LOG][Proc: 0]p_local_coeffs: call_update: 0 [ms]
[OGL LOG][Proc: 0]p_non_local_coeffs: call_update: 0 [ms]
[OGL LOG][Proc: 0]p: update_local_matrix_data: 360.249 [ms]
[OGL LOG][Proc: 0]p: update_non_local_matrix_data: 2.327 [ms]
[OGL LOG][Proc: 0]p: regenerate_distributed_matrix: 1077.43 [ms]
[OGL LOG][Proc: 0]p_matrix: call_update: 1082.15 [ms]
[OGL LOG][Proc: 0]p_rhs: call_update: 32.327 [ms]
[OGL LOG][Proc: 0]p: init_precond: 0.042 [ms]
[OGL LOG][StoppingCriterion.H:239] Creating stopping criterion with minIter 1841 frequency 4
[OGL LOG][Proc: 0]p: generate_solver: 0.021 [ms]
[OGL LOG][Proc: 0]p: solve: 50087 [ms]
[OGL LOG][Proc: 0]p: copy_x_back: 41.261 [ms]
[OGL LOG][lduLduBase.H:330] 
Statistics:
	Time per iteration: 16341 [mu s]
	Time per residual norm calculation: 287.000000 [mu s]
	Time per iteration and DOF: 0.255328 [ns]
	Retrieve results bandwidth 3.102000 [GByte/s]
[OGL LOG][Proc: 0]p: solve_multi_gpu: 51249.4 [ms]
nonedpcppGKOCG:  Solving for p, Initial residual = 0.972301, Final residual = 9.88816e-05, No Iterations 3065
[INFO] SolveP: 51692.7 [ms]
time step continuity errors : sum local = 3.30856e-08, global = 4.76227e-22, cumulative = 1.80569e-21
[INFO] ContinuityError: 245.077 [ms]
[INFO] CorrectBoundary: 2.571 [ms]
[INFO] PISOStep: 55154.1 [ms]
[INFO] MatrixAssemblyPI: 1741.74 [ms]
[INFO] AdjustPhi: 132.989 [ms]
[INFO] ConstrainPressure: 0.003 [ms]
[INFO] MatrixAssemblyPII: 567.413 [ms]
[OGL LOG][Proc: 0]: global_index_init: 12.06 [ms]
[OGL LOG][Proc: 0]p_local_coeffs: call_update: 0 [ms]
[OGL LOG][Proc: 0]p_non_local_coeffs: call_update: 0 [ms]
[OGL LOG][Proc: 0]p: update_local_matrix_data: 366.163 [ms]
[OGL LOG][Proc: 0]p: update_non_local_matrix_data: 2.524 [ms]
[OGL LOG][Proc: 0]p: regenerate_distributed_matrix: 917.829 [ms]
[OGL LOG][Proc: 0]p_matrix: call_update: 922.301 [ms]
[OGL LOG][Proc: 0]p_rhs: call_update: 35.68 [ms]
[OGL LOG][Proc: 0]p: init_precond: 0.035 [ms]
[OGL LOG][StoppingCriterion.H:239] Creating stopping criterion with minIter 1839 frequency 4
[OGL LOG][Proc: 0]p: generate_solver: 0.017 [ms]
[OGL LOG][Proc: 0]p: solve: 50037.7 [ms]
[OGL LOG][Proc: 0]p: copy_x_back: 41.595 [ms]
[OGL LOG][lduLduBase.H:330] 
Statistics:
	Time per iteration: 16304 [mu s]
	Time per residual norm calculation: 309.000000 [mu s]
	Time per iteration and DOF: 0.254750 [ns]
	Retrieve results bandwidth 3.077000 [GByte/s]
[OGL LOG][Proc: 0]p: solve_multi_gpu: 51041.1 [ms]
nonedpcppGKOCG:  Solving for p, Initial residual = 0.908738, Final residual = 9.49056e-05, No Iterations 3069
[INFO] SolveP: 51501.7 [ms]
time step continuity errors : sum local = 3.21476e-08, global = -4.13994e-22, cumulative = 1.3917e-21
[INFO] ContinuityError: 244.919 [ms]
[INFO] CorrectBoundary: 2.588 [ms]
[INFO] PISOStep: 54978.2 [ms]
[INFO] TimeStep: 125233 [ms]
ExecutionTime = 1698.1 s  ClockTime = 1707 s

Time = 0.001625

Courant Number mean: 0.0377056 max: 1.14583
[INFO] MatrixAssemblyU: 1695.96 [ms]
DILUPBiCGStab:  Solving for Ux, Initial residual = 0.0539413, Final residual = 0.00358212, No Iterations 5
DILUPBiCGStab:  Solving for Uy, Initial residual = 0.242725, Final residual = 0.0131891, No Iterations 5
DILUPBiCGStab:  Solving for Uz, Initial residual = 0.723398, Final residual = 0.0336472, No Iterations 5
[INFO] MomentumPredictor: 13182.4 [ms]
[INFO] MatrixAssemblyPI: 1810.07 [ms]
[INFO] AdjustPhi: 279.484 [ms]
[INFO] ConstrainPressure: 0.002 [ms]
[INFO] MatrixAssemblyPII: 584.343 [ms]
[OGL LOG][Proc: 0]: global_index_init: 0.489 [ms]
[OGL LOG][Proc: 0]p_local_coeffs: call_update: 0 [ms]
[OGL LOG][Proc: 0]p_non_local_coeffs: call_update: 0 [ms]
[OGL LOG][Proc: 0]p: update_local_matrix_data: 366.744 [ms]
[OGL LOG][Proc: 0]p: update_non_local_matrix_data: 2.24 [ms]
[OGL LOG][Proc: 0]p: regenerate_distributed_matrix: 915.694 [ms]
[OGL LOG][Proc: 0]p_matrix: call_update: 920.414 [ms]
[OGL LOG][Proc: 0]p_rhs: call_update: 31.876 [ms]
[OGL LOG][Proc: 0]p: init_precond: 0.036 [ms]
[OGL LOG][StoppingCriterion.H:239] Creating stopping criterion with minIter 1841 frequency 4
[OGL LOG][Proc: 0]p: generate_solver: 0.019 [ms]
[OGL LOG][Proc: 0]p: solve: 50290.1 [ms]
[OGL LOG][Proc: 0]p: copy_x_back: 37.639 [ms]
[OGL LOG][lduLduBase.H:330] 
Statistics:
	Time per iteration: 16365 [mu s]
	Time per residual norm calculation: 325.000000 [mu s]
	Time per iteration and DOF: 0.255703 [ns]
	Retrieve results bandwidth 3.400000 [GByte/s]
[OGL LOG][Proc: 0]p: solve_multi_gpu: 51283.3 [ms]
nonedpcppGKOCG:  Solving for p, Initial residual = 0.97604, Final residual = 9.98952e-05, No Iterations 3073
[INFO] SolveP: 51732.8 [ms]
time step continuity errors : sum local = 3.93024e-08, global = -9.99079e-24, cumulative = 1.38171e-21
[INFO] ContinuityError: 232.322 [ms]
[INFO] CorrectBoundary: 2.567 [ms]
[INFO] PISOStep: 55341 [ms]
[INFO] MatrixAssemblyPI: 1732.55 [ms]
[INFO] AdjustPhi: 137.245 [ms]
[INFO] ConstrainPressure: 0.002 [ms]
[INFO] MatrixAssemblyPII: 565.047 [ms]
[OGL LOG][Proc: 0]: global_index_init: 0.027 [ms]
[OGL LOG][Proc: 0]p_local_coeffs: call_update: 0 [ms]
[OGL LOG][Proc: 0]p_non_local_coeffs: call_update: 0 [ms]
[OGL LOG][Proc: 0]p: update_local_matrix_data: 362.444 [ms]
[OGL LOG][Proc: 0]p: update_non_local_matrix_data: 2.431 [ms]
[OGL LOG][Proc: 0]p: regenerate_distributed_matrix: 914.473 [ms]
[OGL LOG][Proc: 0]p_matrix: call_update: 919.225 [ms]
[OGL LOG][Proc: 0]p_rhs: call_update: 32.085 [ms]
[OGL LOG][Proc: 0]p: init_precond: 0.041 [ms]
[OGL LOG][StoppingCriterion.H:239] Creating stopping criterion with minIter 1843 frequency 4
[OGL LOG][Proc: 0]p: generate_solver: 0.02 [ms]
[OGL LOG][Proc: 0]p: solve: 50104.8 [ms]
[OGL LOG][Proc: 0]p: copy_x_back: 41.37 [ms]
[OGL LOG][lduLduBase.H:330] 
Statistics:
	Time per iteration: 16304 [mu s]
	Time per residual norm calculation: 322.000000 [mu s]
	Time per iteration and DOF: 0.254750 [ns]
	Retrieve results bandwidth 3.094000 [GByte/s]
[OGL LOG][Proc: 0]p: solve_multi_gpu: 51099.1 [ms]
nonedpcppGKOCG:  Solving for p, Initial residual = 0.920646, Final residual = 9.51704e-05, No Iterations 3073
[INFO] SolveP: 51543.5 [ms]
time step continuity errors : sum local = 3.75373e-08, global = 9.70839e-22, cumulative = 2.35255e-21
[INFO] ContinuityError: 223.017 [ms]
[INFO] CorrectBoundary: 2.574 [ms]
[INFO] PISOStep: 54865.4 [ms]
[INFO] TimeStep: 125330 [ms]
ExecutionTime = 1823.5 s  ClockTime = 1832 s

Time = 0.00175

Courant Number mean: 0.0387736 max: 1.02364
[INFO] MatrixAssemblyU: 1563.9 [ms]
DILUPBiCGStab:  Solving for Ux, Initial residual = 0.0621604, Final residual = 0.00387761, No Iterations 5
DILUPBiCGStab:  Solving for Uy, Initial residual = 0.253534, Final residual = 0.0126489, No Iterations 5
DILUPBiCGStab:  Solving for Uz, Initial residual = 0.728237, Final residual = 0.0333881, No Iterations 5
[INFO] MomentumPredictor: 13058.9 [ms]
[INFO] MatrixAssemblyPI: 1759.2 [ms]
[INFO] AdjustPhi: 145.334 [ms]
[INFO] ConstrainPressure: 0.002 [ms]
[INFO] MatrixAssemblyPII: 563.49 [ms]
[OGL LOG][Proc: 0]: global_index_init: 0.029 [ms]
[OGL LOG][Proc: 0]p_local_coeffs: call_update: 0 [ms]
[OGL LOG][Proc: 0]p_non_local_coeffs: call_update: 0 [ms]
[OGL LOG][Proc: 0]p: update_local_matrix_data: 360.366 [ms]
[OGL LOG][Proc: 0]p: update_non_local_matrix_data: 2.408 [ms]
[OGL LOG][Proc: 0]p: regenerate_distributed_matrix: 911.917 [ms]
[OGL LOG][Proc: 0]p_matrix: call_update: 916.636 [ms]
[OGL LOG][Proc: 0]p_rhs: call_update: 31.485 [ms]
[OGL LOG][Proc: 0]p: init_precond: 0.041 [ms]
[OGL LOG][StoppingCriterion.H:239] Creating stopping criterion with minIter 1843 frequency 4
[OGL LOG][Proc: 0]p: generate_solver: 0.021 [ms]
[OGL LOG][Proc: 0]p: solve: 50440.2 [ms]
[OGL LOG][Proc: 0]p: copy_x_back: 37.493 [ms]
[OGL LOG][lduLduBase.H:330] 
Statistics:
	Time per iteration: 16371 [mu s]
	Time per residual norm calculation: 313.000000 [mu s]
	Time per iteration and DOF: 0.255797 [ns]
	Retrieve results bandwidth 3.413000 [GByte/s]
[OGL LOG][Proc: 0]p: solve_multi_gpu: 51430.1 [ms]
nonedpcppGKOCG:  Solving for p, Initial residual = 0.976743, Final residual = 9.48589e-05, No Iterations 3081
[INFO] SolveP: 51872.6 [ms]
time step continuity errors : sum local = 4.41507e-08, global = 5.84791e-22, cumulative = 2.93734e-21
[INFO] ContinuityError: 262.001 [ms]
[INFO] CorrectBoundary: 2.566 [ms]
[INFO] PISOStep: 55266.1 [ms]
[INFO] MatrixAssemblyPI: 1761.71 [ms]
[INFO] AdjustPhi: 122.167 [ms]
[INFO] ConstrainPressure: 0.003 [ms]
[INFO] MatrixAssemblyPII: 596.622 [ms]
[OGL LOG][Proc: 0]: global_index_init: 0.413 [ms]
[OGL LOG][Proc: 0]p_local_coeffs: call_update: 0 [ms]
[OGL LOG][Proc: 0]p_non_local_coeffs: call_update: 0 [ms]
[OGL LOG][Proc: 0]p: update_local_matrix_data: 363.123 [ms]
[OGL LOG][Proc: 0]p: update_non_local_matrix_data: 2.429 [ms]
[OGL LOG][Proc: 0]p: regenerate_distributed_matrix: 944.992 [ms]
[OGL LOG][Proc: 0]p_matrix: call_update: 949.786 [ms]
[OGL LOG][Proc: 0]p_rhs: call_update: 32.125 [ms]
[OGL LOG][Proc: 0]p: init_precond: 0.037 [ms]
[OGL LOG][StoppingCriterion.H:239] Creating stopping criterion with minIter 1848 frequency 4
[OGL LOG][Proc: 0]p: generate_solver: 0.018 [ms]
[OGL LOG][Proc: 0]p: solve: 50160.2 [ms]
[OGL LOG][Proc: 0]p: copy_x_back: 38.142 [ms]
[OGL LOG][lduLduBase.H:330] 
Statistics:
	Time per iteration: 16322 [mu s]
	Time per residual norm calculation: 317.000000 [mu s]
	Time per iteration and DOF: 0.255031 [ns]
	Retrieve results bandwidth 3.355000 [GByte/s]
[OGL LOG][Proc: 0]p: solve_multi_gpu: 51185.8 [ms]
nonedpcppGKOCG:  Solving for p, Initial residual = 0.912938, Final residual = 9.85844e-05, No Iterations 3073
[INFO] SolveP: 51631.9 [ms]
time step continuity errors : sum local = 4.63998e-08, global = 4.1317e-22, cumulative = 3.35051e-21
[INFO] ContinuityError: 270.054 [ms]
[INFO] CorrectBoundary: 53.413 [ms]
[INFO] PISOStep: 55094.7 [ms]
[INFO] TimeStep: 125198 [ms]
ExecutionTime = 1948.77 s  ClockTime = 1957 s

Time = 0.001875

Courant Number mean: 0.0402652 max: 1.68843
[INFO] MatrixAssemblyU: 1572.21 [ms]
DILUPBiCGStab:  Solving for Ux, Initial residual = 0.0692843, Final residual = 0.00397965, No Iterations 5
DILUPBiCGStab:  Solving for Uy, Initial residual = 0.286286, Final residual = 0.0139984, No Iterations 5
DILUPBiCGStab:  Solving for Uz, Initial residual = 0.737493, Final residual = 0.0332564, No Iterations 5
[INFO] MomentumPredictor: 13261.5 [ms]
[INFO] MatrixAssemblyPI: 1772.17 [ms]
[INFO] AdjustPhi: 119.615 [ms]
[INFO] ConstrainPressure: 0.003 [ms]
[INFO] MatrixAssemblyPII: 565.948 [ms]
[OGL LOG][Proc: 0]: global_index_init: 0.032 [ms]
[OGL LOG][Proc: 0]p_local_coeffs: call_update: 0 [ms]
[OGL LOG][Proc: 0]p_non_local_coeffs: call_update: 0 [ms]
[OGL LOG][Proc: 0]p: update_local_matrix_data: 368.287 [ms]
[OGL LOG][Proc: 0]p: update_non_local_matrix_data: 2.463 [ms]
[OGL LOG][Proc: 0]p: regenerate_distributed_matrix: 923.08 [ms]
[OGL LOG][Proc: 0]p_matrix: call_update: 927.787 [ms]
[OGL LOG][Proc: 0]p_rhs: call_update: 31.95 [ms]
[OGL LOG][Proc: 0]p: init_precond: 0.036 [ms]
[OGL LOG][StoppingCriterion.H:239] Creating stopping criterion with minIter 1843 frequency 4
[OGL LOG][Proc: 0]p: generate_solver: 0.019 [ms]
[OGL LOG][Proc: 0]p: solve: 50407.6 [ms]
[OGL LOG][Proc: 0]p: copy_x_back: 41.638 [ms]
[OGL LOG][lduLduBase.H:330] 
Statistics:
	Time per iteration: 16360 [mu s]
	Time per residual norm calculation: 316.000000 [mu s]
	Time per iteration and DOF: 0.255625 [ns]
	Retrieve results bandwidth 3.074000 [GByte/s]
[OGL LOG][Proc: 0]p: solve_multi_gpu: 51411.6 [ms]
nonedpcppGKOCG:  Solving for p, Initial residual = 0.97893, Final residual = 9.67262e-05, No Iterations 3081
[INFO] SolveP: 51863.3 [ms]
time step continuity errors : sum local = 5.32645e-08, global = 5.7365e-22, cumulative = 3.92416e-21
[INFO] ContinuityError: 249.914 [ms]
[INFO] CorrectBoundary: 2.58 [ms]
[INFO] PISOStep: 55329.9 [ms]
[INFO] MatrixAssemblyPI: 1776.16 [ms]
[INFO] AdjustPhi: 114.251 [ms]
[INFO] ConstrainPressure: 0.002 [ms]
[INFO] MatrixAssemblyPII: 568.142 [ms]
[OGL LOG][Proc: 0]: global_index_init: 0.03 [ms]
[OGL LOG][Proc: 0]p_local_coeffs: call_update: 0 [ms]
[OGL LOG][Proc: 0]p_non_local_coeffs: call_update: 0 [ms]
[OGL LOG][Proc: 0]p: update_local_matrix_data: 366.798 [ms]
[OGL LOG][Proc: 0]p: update_non_local_matrix_data: 2.361 [ms]
[OGL LOG][Proc: 0]p: regenerate_distributed_matrix: 927.622 [ms]
[OGL LOG][Proc: 0]p_matrix: call_update: 932.273 [ms]
[OGL LOG][Proc: 0]p_rhs: call_update: 33.542 [ms]
[OGL LOG][Proc: 0]p: init_precond: 0.044 [ms]
[OGL LOG][StoppingCriterion.H:239] Creating stopping criterion with minIter 1848 frequency 4
[OGL LOG][Proc: 0]p: generate_solver: 0.02 [ms]
[OGL LOG][Proc: 0]p: solve: 50352 [ms]
[OGL LOG][Proc: 0]p: copy_x_back: 37.913 [ms]
[OGL LOG][lduLduBase.H:330] 
Statistics:
	Time per iteration: 16385 [mu s]
	Time per residual norm calculation: 315.000000 [mu s]
	Time per iteration and DOF: 0.256016 [ns]
	Retrieve results bandwidth 3.376000 [GByte/s]
[OGL LOG][Proc: 0]p: solve_multi_gpu: 51362.2 [ms]
nonedpcppGKOCG:  Solving for p, Initial residual = 0.921126, Final residual = 9.94865e-05, No Iterations 3073
[INFO] SolveP: 51812 [ms]
time step continuity errors : sum local = 5.50062e-08, global = -1.79821e-22, cumulative = 3.74434e-21
[INFO] ContinuityError: 264.618 [ms]
[INFO] CorrectBoundary: 2.699 [ms]
[INFO] PISOStep: 55249.6 [ms]
[INFO] TimeStep: 125676 [ms]
ExecutionTime = 2074.52 s  ClockTime = 2083 s

Time = 0.002

Courant Number mean: 0.0412661 max: 1.73229
[INFO] MatrixAssemblyU: 1565.42 [ms]
DILUPBiCGStab:  Solving for Ux, Initial residual = 0.0811156, Final residual = 0.00439481, No Iterations 5
DILUPBiCGStab:  Solving for Uy, Initial residual = 0.303554, Final residual = 0.0139026, No Iterations 5
DILUPBiCGStab:  Solving for Uz, Initial residual = 0.741307, Final residual = 0.0330567, No Iterations 5
[INFO] MomentumPredictor: 13187.6 [ms]
[INFO] MatrixAssemblyPI: 1765.13 [ms]
[INFO] AdjustPhi: 119.532 [ms]
[INFO] ConstrainPressure: 0.002 [ms]
[INFO] MatrixAssemblyPII: 565.085 [ms]
[OGL LOG][Proc: 0]: global_index_init: 0.031 [ms]
[OGL LOG][Proc: 0]p_local_coeffs: call_update: 0 [ms]
[OGL LOG][Proc: 0]p_non_local_coeffs: call_update: 0 [ms]
[OGL LOG][Proc: 0]p: update_local_matrix_data: 361.801 [ms]
[OGL LOG][Proc: 0]p: update_non_local_matrix_data: 2.504 [ms]
[OGL LOG][Proc: 0]p: regenerate_distributed_matrix: 912.627 [ms]
[OGL LOG][Proc: 0]p_matrix: call_update: 917.318 [ms]
[OGL LOG][Proc: 0]p_rhs: call_update: 31.181 [ms]
[OGL LOG][Proc: 0]p: init_precond: 0.034 [ms]
[OGL LOG][StoppingCriterion.H:239] Creating stopping criterion with minIter 1843 frequency 4
[OGL LOG][Proc: 0]p: generate_solver: 0.019 [ms]
[OGL LOG][Proc: 0]p: solve: 50465.3 [ms]
[OGL LOG][Proc: 0]p: copy_x_back: 42.003 [ms]
[OGL LOG][lduLduBase.H:330] 
Statistics:
	Time per iteration: 16379 [mu s]
	Time per residual norm calculation: 308.000000 [mu s]
	Time per iteration and DOF: 0.255922 [ns]
	Retrieve results bandwidth 3.047000 [GByte/s]
[OGL LOG][Proc: 0]p: solve_multi_gpu: 51457.3 [ms]
nonedpcppGKOCG:  Solving for p, Initial residual = 0.980119, Final residual = 9.99159e-05, No Iterations 3081
[INFO] SolveP: 51902 [ms]
time step continuity errors : sum local = 6.53645e-08, global = 9.14448e-22, cumulative = 4.65879e-21
[INFO] ContinuityError: 249.49 [ms]
[INFO] CorrectBoundary: 2.588 [ms]
[INFO] PISOStep: 55261.7 [ms]
[INFO] MatrixAssemblyPI: 1757.34 [ms]
[INFO] AdjustPhi: 114.17 [ms]
[INFO] ConstrainPressure: 0.002 [ms]
[INFO] MatrixAssemblyPII: 603.072 [ms]
[OGL LOG][Proc: 0]: global_index_init: 0.16 [ms]
[OGL LOG][Proc: 0]p_local_coeffs: call_update: 0 [ms]
[OGL LOG][Proc: 0]p_non_local_coeffs: call_update: 0 [ms]
[OGL LOG][Proc: 0]p: update_local_matrix_data: 362.728 [ms]
[OGL LOG][Proc: 0]p: update_non_local_matrix_data: 2.62 [ms]
[OGL LOG][Proc: 0]p: regenerate_distributed_matrix: 915.701 [ms]
[OGL LOG][Proc: 0]p_matrix: call_update: 920.484 [ms]
[OGL LOG][Proc: 0]p_rhs: call_update: 31.4 [ms]
[OGL LOG][Proc: 0]p: init_precond: 0.04 [ms]
[OGL LOG][StoppingCriterion.H:239] Creating stopping criterion with minIter 1848 frequency 4
[OGL LOG][Proc: 0]p: generate_solver: 0.02 [ms]
[OGL LOG][Proc: 0]p: solve: 50203.7 [ms]
[OGL LOG][Proc: 0]p: copy_x_back: 37.935 [ms]
[OGL LOG][lduLduBase.H:330] 
Statistics:
	Time per iteration: 16315 [mu s]
	Time per residual norm calculation: 335.000000 [mu s]
	Time per iteration and DOF: 0.254922 [ns]
	Retrieve results bandwidth 3.374000 [GByte/s]
[OGL LOG][Proc: 0]p: solve_multi_gpu: 51198.4 [ms]
nonedpcppGKOCG:  Solving for p, Initial residual = 0.916047, Final residual = 9.74394e-05, No Iterations 3077
[INFO] SolveP: 51644.4 [ms]
time step continuity errors : sum local = 6.44048e-08, global = 1.39782e-21, cumulative = 6.0566e-21
[INFO] ContinuityError: 263.652 [ms]
[INFO] CorrectBoundary: 2.691 [ms]
[INFO] PISOStep: 55097.4 [ms]
[INFO] TimeStep: 125344 [ms]
ExecutionTime = 2199.92 s  ClockTime = 2208 s

Time = 0.002125

Courant Number mean: 0.0428013 max: 2.57499
[INFO] MatrixAssemblyU: 1569.16 [ms]
DILUPBiCGStab:  Solving for Ux, Initial residual = 0.0913504, Final residual = 0.00466283, No Iterations 5
DILUPBiCGStab:  Solving for Uy, Initial residual = 0.339354, Final residual = 0.015316, No Iterations 5
DILUPBiCGStab:  Solving for Uz, Initial residual = 0.747293, Final residual = 0.0329554, No Iterations 5
[INFO] MomentumPredictor: 13295.1 [ms]
[INFO] MatrixAssemblyPI: 1783.93 [ms]
[INFO] AdjustPhi: 160.46 [ms]
[INFO] ConstrainPressure: 0.002 [ms]
[INFO] MatrixAssemblyPII: 609.388 [ms]
[OGL LOG][Proc: 0]: global_index_init: 0.054 [ms]
[OGL LOG][Proc: 0]p_local_coeffs: call_update: 0 [ms]
[OGL LOG][Proc: 0]p_non_local_coeffs: call_update: 0 [ms]
[OGL LOG][Proc: 0]p: update_local_matrix_data: 361.494 [ms]
[OGL LOG][Proc: 0]p: update_non_local_matrix_data: 2.328 [ms]
[OGL LOG][Proc: 0]p: regenerate_distributed_matrix: 909.391 [ms]
[OGL LOG][Proc: 0]p_matrix: call_update: 913.426 [ms]
[OGL LOG][Proc: 0]p_rhs: call_update: 36.257 [ms]
[OGL LOG][Proc: 0]p: init_precond: 0.04 [ms]
[OGL LOG][StoppingCriterion.H:239] Creating stopping criterion with minIter 1846 frequency 5
[OGL LOG][Proc: 0]p: generate_solver: 0.019 [ms]
[OGL LOG][Proc: 0]p: solve: 50485.8 [ms]
[OGL LOG][Proc: 0]p: copy_x_back: 37.824 [ms]
[OGL LOG][lduLduBase.H:330] 
Statistics:
	Time per iteration: 16359 [mu s]
	Time per residual norm calculation: 306.000000 [mu s]
	Time per iteration and DOF: 0.255609 [ns]
	Retrieve results bandwidth 3.384000 [GByte/s]
[OGL LOG][Proc: 0]p: solve_multi_gpu: 51482.5 [ms]
nonedpcppGKOCG:  Solving for p, Initial residual = 0.981169, Final residual = 9.498e-05, No Iterations 3086
[INFO] SolveP: 51927.2 [ms]
time step continuity errors : sum local = 7.41149e-08, global = 7.10186e-22, cumulative = 6.76679e-21
[INFO] ContinuityError: 274.863 [ms]
[INFO] CorrectBoundary: 2.616 [ms]
[INFO] PISOStep: 55451.1 [ms]
[INFO] MatrixAssemblyPI: 1759.03 [ms]
[INFO] AdjustPhi: 138.107 [ms]
[INFO] ConstrainPressure: 0.002 [ms]
[INFO] MatrixAssemblyPII: 613.397 [ms]
[OGL LOG][Proc: 0]: global_index_init: 0.258 [ms]
[OGL LOG][Proc: 0]p_local_coeffs: call_update: 0 [ms]
[OGL LOG][Proc: 0]p_non_local_coeffs: call_update: 0 [ms]
[OGL LOG][Proc: 0]p: update_local_matrix_data: 362.752 [ms]
[OGL LOG][Proc: 0]p: update_non_local_matrix_data: 2.461 [ms]
[OGL LOG][Proc: 0]p: regenerate_distributed_matrix: 917.855 [ms]
[OGL LOG][Proc: 0]p_matrix: call_update: 922.571 [ms]
[OGL LOG][Proc: 0]p_rhs: call_update: 31.796 [ms]
[OGL LOG][Proc: 0]p: init_precond: 0.042 [ms]
[OGL LOG][StoppingCriterion.H:239] Creating stopping criterion with minIter 1851 frequency 4
[OGL LOG][Proc: 0]p: generate_solver: 0.02 [ms]
[OGL LOG][Proc: 0]p: solve: 50384.2 [ms]
[OGL LOG][Proc: 0]p: copy_x_back: 41.553 [ms]
[OGL LOG][lduLduBase.H:330] 
Statistics:
	Time per iteration: 16374 [mu s]
	Time per residual norm calculation: 303.000000 [mu s]
	Time per iteration and DOF: 0.255844 [ns]
	Retrieve results bandwidth 3.080000 [GByte/s]
[OGL LOG][Proc: 0]p: solve_multi_gpu: 51381.7 [ms]
nonedpcppGKOCG:  Solving for p, Initial residual = 0.921161, Final residual = 9.98975e-05, No Iterations 3077
[INFO] SolveP: 51828 [ms]
time step continuity errors : sum local = 7.83791e-08, global = 1.04018e-21, cumulative = 7.80697e-21
[INFO] ContinuityError: 220.124 [ms]
[INFO] CorrectBoundary: 2.587 [ms]
[INFO] PISOStep: 55248.5 [ms]
[INFO] TimeStep: 125788 [ms]
ExecutionTime = 2325.78 s  ClockTime = 2334 s

Time = 0.00225

Courant Number mean: 0.0438192 max: 2.89686
[INFO] MatrixAssemblyU: 1570.48 [ms]
DILUPBiCGStab:  Solving for Ux, Initial residual = 0.108356, Final residual = 0.00526854, No Iterations 5
DILUPBiCGStab:  Solving for Uy, Initial residual = 0.362908, Final residual = 0.0156058, No Iterations 5
DILUPBiCGStab:  Solving for Uz, Initial residual = 0.749883, Final residual = 0.0327471, No Iterations 5
[INFO] MomentumPredictor: 13099.3 [ms]
[INFO] MatrixAssemblyPI: 1787.41 [ms]
[INFO] AdjustPhi: 114.43 [ms]
[INFO] ConstrainPressure: 0.002 [ms]
[INFO] MatrixAssemblyPII: 608.506 [ms]
[OGL LOG][Proc: 0]: global_index_init: 0.028 [ms]
[OGL LOG][Proc: 0]p_local_coeffs: call_update: 0 [ms]
[OGL LOG][Proc: 0]p_non_local_coeffs: call_update: 0 [ms]
[OGL LOG][Proc: 0]p: update_local_matrix_data: 361.801 [ms]
[OGL LOG][Proc: 0]p: update_non_local_matrix_data: 2.321 [ms]
[OGL LOG][Proc: 0]p: regenerate_distributed_matrix: 913.079 [ms]
[OGL LOG][Proc: 0]p_matrix: call_update: 917.755 [ms]
[OGL LOG][Proc: 0]p_rhs: call_update: 31.532 [ms]
[OGL LOG][Proc: 0]p: init_precond: 0.038 [ms]
[OGL LOG][StoppingCriterion.H:239] Creating stopping criterion with minIter 1846 frequency 4
[OGL LOG][Proc: 0]p: generate_solver: 0.019 [ms]
[OGL LOG][Proc: 0]p: solve: 50474.3 [ms]
[OGL LOG][Proc: 0]p: copy_x_back: 37.826 [ms]
[OGL LOG][lduLduBase.H:330] 
Statistics:
	Time per iteration: 16340 [mu s]
	Time per residual norm calculation: 306.000000 [mu s]
	Time per iteration and DOF: 0.255312 [ns]
	Retrieve results bandwidth 3.383000 [GByte/s]
[OGL LOG][Proc: 0]p: solve_multi_gpu: 51466.5 [ms]
nonedpcppGKOCG:  Solving for p, Initial residual = 0.982437, Final residual = 9.20352e-05, No Iterations 3089
[INFO] SolveP: 51911 [ms]
time step continuity errors : sum local = 8.59708e-08, global = 1.55251e-21, cumulative = 9.35948e-21
[INFO] ContinuityError: 257.853 [ms]
[INFO] CorrectBoundary: 2.574 [ms]
[INFO] PISOStep: 55339.4 [ms]
[INFO] MatrixAssemblyPI: 1743.86 [ms]
[INFO] AdjustPhi: 138.214 [ms]
[INFO] ConstrainPressure: 0.004 [ms]
[INFO] MatrixAssemblyPII: 593.169 [ms]
[OGL LOG][Proc: 0]: global_index_init: 0.029 [ms]
[OGL LOG][Proc: 0]p_local_coeffs: call_update: 0 [ms]
[OGL LOG][Proc: 0]p_non_local_coeffs: call_update: 0 [ms]
[OGL LOG][Proc: 0]p: update_local_matrix_data: 362.835 [ms]
[OGL LOG][Proc: 0]p: update_non_local_matrix_data: 2.462 [ms]
[OGL LOG][Proc: 0]p: regenerate_distributed_matrix: 1079.7 [ms]
[OGL LOG][Proc: 0]p_matrix: call_update: 1083.78 [ms]
[OGL LOG][Proc: 0]p_rhs: call_update: 35.095 [ms]
[OGL LOG][Proc: 0]p: init_precond: 0.039 [ms]
[OGL LOG][StoppingCriterion.H:239] Creating stopping criterion with minIter 1853 frequency 4
[OGL LOG][Proc: 0]p: generate_solver: 0.018 [ms]
[OGL LOG][Proc: 0]p: solve: 50426.4 [ms]
[OGL LOG][Proc: 0]p: copy_x_back: 37.966 [ms]
[OGL LOG][lduLduBase.H:330] 
Statistics:
	Time per iteration: 16366 [mu s]
	Time per residual norm calculation: 296.000000 [mu s]
	Time per iteration and DOF: 0.255719 [ns]
	Retrieve results bandwidth 3.371000 [GByte/s]
[OGL LOG][Proc: 0]p: solve_multi_gpu: 51588.2 [ms]
nonedpcppGKOCG:  Solving for p, Initial residual = 0.918203, Final residual = 9.89096e-05, No Iterations 3081
[INFO] SolveP: 52034 [ms]
time step continuity errors : sum local = 9.32986e-08, global = 7.81892e-22, cumulative = 1.01414e-20
[INFO] ContinuityError: 272.708 [ms]
[INFO] CorrectBoundary: 8.337 [ms]
[INFO] PISOStep: 55511.4 [ms]
[INFO] TimeStep: 125750 [ms]
ExecutionTime = 2451.6 s  ClockTime = 2460 s

Time = 0.002375

Courant Number mean: 0.0454857 max: 4.02344
[INFO] MatrixAssemblyU: 1569.55 [ms]
DILUPBiCGStab:  Solving for Ux, Initial residual = 0.122615, Final residual = 0.00571882, No Iterations 5
DILUPBiCGStab:  Solving for Uy, Initial residual = 0.399969, Final residual = 0.0170617, No Iterations 5
DILUPBiCGStab:  Solving for Uz, Initial residual = 0.75369, Final residual = 0.0326948, No Iterations 5
[INFO] MomentumPredictor: 13187.6 [ms]
[INFO] MatrixAssemblyPI: 1771.23 [ms]
[INFO] AdjustPhi: 120.259 [ms]
[INFO] ConstrainPressure: 0.002 [ms]
[INFO] MatrixAssemblyPII: 564.987 [ms]
[OGL LOG][Proc: 0]: global_index_init: 0.029 [ms]
[OGL LOG][Proc: 0]p_local_coeffs: call_update: 0 [ms]
[OGL LOG][Proc: 0]p_non_local_coeffs: call_update: 0 [ms]
[OGL LOG][Proc: 0]p: update_local_matrix_data: 361.766 [ms]
[OGL LOG][Proc: 0]p: update_non_local_matrix_data: 2.407 [ms]
[OGL LOG][Proc: 0]p: regenerate_distributed_matrix: 909.197 [ms]
[OGL LOG][Proc: 0]p_matrix: call_update: 914.037 [ms]
[OGL LOG][Proc: 0]p_rhs: call_update: 32.937 [ms]
[OGL LOG][Proc: 0]p: init_precond: 0.035 [ms]
[OGL LOG][StoppingCriterion.H:239] Creating stopping criterion with minIter 1848 frequency 4
[OGL LOG][Proc: 0]p: generate_solver: 0.019 [ms]
[OGL LOG][Proc: 0]p: solve: 50292.1 [ms]
[OGL LOG][Proc: 0]p: copy_x_back: 41.62 [ms]
[OGL LOG][lduLduBase.H:330] 
Statistics:
	Time per iteration: 16302 [mu s]
	Time per residual norm calculation: 314.000000 [mu s]
	Time per iteration and DOF: 0.254719 [ns]
	Retrieve results bandwidth 3.075000 [GByte/s]
[OGL LOG][Proc: 0]p: solve_multi_gpu: 51282.6 [ms]
nonedpcppGKOCG:  Solving for p, Initial residual = 0.982884, Final residual = 9.91044e-05, No Iterations 3085
[INFO] SolveP: 51727.3 [ms]
time step continuity errors : sum local = 1.11285e-07, global = 7.94636e-22, cumulative = 1.0936e-20
[INFO] ContinuityError: 245.449 [ms]
[INFO] CorrectBoundary: 2.584 [ms]
[INFO] PISOStep: 55118.3 [ms]
[INFO] MatrixAssemblyPI: 1740 [ms]
[INFO] AdjustPhi: 126.693 [ms]
[INFO] ConstrainPressure: 0.002 [ms]
[INFO] MatrixAssemblyPII: 573.426 [ms]
[OGL LOG][Proc: 0]: global_index_init: 0.026 [ms]
[OGL LOG][Proc: 0]p_local_coeffs: call_update: 0 [ms]
[OGL LOG][Proc: 0]p_non_local_coeffs: call_update: 0 [ms]
[OGL LOG][Proc: 0]p: update_local_matrix_data: 363.283 [ms]
[OGL LOG][Proc: 0]p: update_non_local_matrix_data: 2.471 [ms]
[OGL LOG][Proc: 0]p: regenerate_distributed_matrix: 917.79 [ms]
[OGL LOG][Proc: 0]p_matrix: call_update: 922.651 [ms]
[OGL LOG][Proc: 0]p_rhs: call_update: 31.747 [ms]
[OGL LOG][Proc: 0]p: init_precond: 0.04 [ms]
[OGL LOG][StoppingCriterion.H:239] Creating stopping criterion with minIter 1851 frequency 4
[OGL LOG][Proc: 0]p: generate_solver: 0.018 [ms]
[OGL LOG][Proc: 0]p: solve: 50427 [ms]
[OGL LOG][Proc: 0]p: copy_x_back: 41.517 [ms]
[OGL LOG][lduLduBase.H:330] 
Statistics:
	Time per iteration: 16345 [mu s]
	Time per residual norm calculation: 302.000000 [mu s]
	Time per iteration and DOF: 0.255391 [ns]
	Retrieve results bandwidth 3.083000 [GByte/s]
[OGL LOG][Proc: 0]p: solve_multi_gpu: 51424.7 [ms]
nonedpcppGKOCG:  Solving for p, Initial residual = 0.92141, Final residual = 9.38575e-05, No Iterations 3085
[INFO] SolveP: 51870.9 [ms]
time step continuity errors : sum local = 1.06088e-07, global = 1.3876e-21, cumulative = 1.23236e-20
[INFO] ContinuityError: 245.447 [ms]
[INFO] CorrectBoundary: 2.583 [ms]
[INFO] PISOStep: 55285.5 [ms]
[INFO] TimeStep: 125384 [ms]
ExecutionTime = 2577.06 s  ClockTime = 2585 s

Time = 0.0025

Courant Number mean: 0.0466357 max: 4.79555
[INFO] MatrixAssemblyU: 1569.96 [ms]
DILUPBiCGStab:  Solving for Ux, Initial residual = 0.146547, Final residual = 0.00659694, No Iterations 5
DILUPBiCGStab:  Solving for Uy, Initial residual = 0.428114, Final residual = 0.0176607, No Iterations 5
DILUPBiCGStab:  Solving for Uz, Initial residual = 0.755193, Final residual = 0.0324815, No Iterations 5
[INFO] MomentumPredictor: 13116.8 [ms]
[INFO] MatrixAssemblyPI: 1783.31 [ms]
[INFO] AdjustPhi: 114.609 [ms]
[INFO] ConstrainPressure: 0.002 [ms]
[INFO] MatrixAssemblyPII: 608.053 [ms]
[OGL LOG][Proc: 0]: global_index_init: 0.028 [ms]
[OGL LOG][Proc: 0]p_local_coeffs: call_update: 0 [ms]
[OGL LOG][Proc: 0]p_non_local_coeffs: call_update: 0 [ms]
[OGL LOG][Proc: 0]p: update_local_matrix_data: 361.605 [ms]
[OGL LOG][Proc: 0]p: update_non_local_matrix_data: 2.393 [ms]
[OGL LOG][Proc: 0]p: regenerate_distributed_matrix: 956.725 [ms]
[OGL LOG][Proc: 0]p_matrix: call_update: 961.368 [ms]
[OGL LOG][Proc: 0]p_rhs: call_update: 32.984 [ms]
[OGL LOG][Proc: 0]p: init_precond: 0.038 [ms]
[OGL LOG][StoppingCriterion.H:239] Creating stopping criterion with minIter 1851 frequency 4
[OGL LOG][Proc: 0]p: generate_solver: 0.02 [ms]
[OGL LOG][Proc: 0]p: solve: 50557.1 [ms]
[OGL LOG][Proc: 0]p: copy_x_back: 41.595 [ms]
[OGL LOG][lduLduBase.H:330] 
Statistics:
	Time per iteration: 16366 [mu s]
	Time per residual norm calculation: 306.000000 [mu s]
	Time per iteration and DOF: 0.255719 [ns]
	Retrieve results bandwidth 3.077000 [GByte/s]
[OGL LOG][Proc: 0]p: solve_multi_gpu: 51594.6 [ms]
nonedpcppGKOCG:  Solving for p, Initial residual = 0.983826, Final residual = 9.66751e-05, No Iterations 3089
[INFO] SolveP: 52039.1 [ms]
time step continuity errors : sum local = 1.30926e-07, global = 1.89093e-21, cumulative = 1.42145e-20
[INFO] ContinuityError: 245.458 [ms]
[INFO] CorrectBoundary: 2.566 [ms]
[INFO] PISOStep: 55548.9 [ms]
[INFO] MatrixAssemblyPI: 1763.95 [ms]
[INFO] AdjustPhi: 127 [ms]
[INFO] ConstrainPressure: 0.002 [ms]
[INFO] MatrixAssemblyPII: 609.468 [ms]
[OGL LOG][Proc: 0]: global_index_init: 0.026 [ms]
[OGL LOG][Proc: 0]p_local_coeffs: call_update: 0 [ms]
[OGL LOG][Proc: 0]p_non_local_coeffs: call_update: 0 [ms]
[OGL LOG][Proc: 0]p: update_local_matrix_data: 362.81 [ms]
[OGL LOG][Proc: 0]p: update_non_local_matrix_data: 2.54 [ms]
[OGL LOG][Proc: 0]p: regenerate_distributed_matrix: 915.422 [ms]
[OGL LOG][Proc: 0]p_matrix: call_update: 920.226 [ms]
[OGL LOG][Proc: 0]p_rhs: call_update: 32.186 [ms]
[OGL LOG][Proc: 0]p: init_precond: 0.04 [ms]
[OGL LOG][StoppingCriterion.H:239] Creating stopping criterion with minIter 1853 frequency 4
[OGL LOG][Proc: 0]p: generate_solver: 0.019 [ms]
[OGL LOG][Proc: 0]p: solve: 50468.2 [ms]
[OGL LOG][Proc: 0]p: copy_x_back: 41.524 [ms]
[OGL LOG][lduLduBase.H:330] 
Statistics:
	Time per iteration: 16359 [mu s]
	Time per residual norm calculation: 333.000000 [mu s]
	Time per iteration and DOF: 0.255609 [ns]
	Retrieve results bandwidth 3.082000 [GByte/s]
[OGL LOG][Proc: 0]p: solve_multi_gpu: 51463.8 [ms]
nonedpcppGKOCG:  Solving for p, Initial residual = 0.919561, Final residual = 9.69405e-05, No Iterations 3085
[INFO] SolveP: 51909.7 [ms]
time step continuity errors : sum local = 1.3254e-07, global = -6.10304e-23, cumulative = 1.41535e-20
[INFO] ContinuityError: 245.511 [ms]
[INFO] CorrectBoundary: 2.574 [ms]
[INFO] PISOStep: 55413.6 [ms]
[INFO] TimeStep: 125863 [ms]
ExecutionTime = 2703.01 s  ClockTime = 2711 s

End

Finalising parallel run
