/*---------------------------------------------------------------------------*\
| =========                 |                                                 |
| \\      /  F ield         | OpenFOAM: The Open Source CFD Toolbox           |
|  \\    /   O peration     | Version:  2306                                  |
|   \\  /    A nd           | Website:  www.openfoam.com                      |
|    \\/     M anipulation  |                                                 |
\*---------------------------------------------------------------------------*/
Build  : a6e826bd55-20230630 OPENFOAM=2306 version=v2306
Arch   : "LSB;label=32;scalar=64"
Exec   : simpleFoam -parallel -case /home/greole/data/code/exasim_project/micro_benchmarks/WindsorBody/workspace/d1dbfebb586c4c78a66dce51c64f4802/case
Date   : Aug 12 2023
Time   : 02:19:58
Host   : nla-gpu2.ianm.kit.edu
PID    : 2488627
I/O    : uncollated
Case   : /home/greole/data/code/exasim_project/micro_benchmarks/WindsorBody/workspace/d1dbfebb586c4c78a66dce51c64f4802/case
nProcs : 16
Hosts  :
(
    (nla-gpu2.ianm.kit.edu 16)
)
Pstream initialized with:
    floatTransfer      : false
    nProcsSimpleSum    : 0
    nonBlockingExchange: 0 (tuning: 0)
    exchange algorithm : -1
    commsType          : nonBlocking
    polling iterations : 0
trapFpe: Floating point exception trapping enabled (FOAM_SIGFPE).
fileModificationChecking : Monitoring run-time modified files using timeStampMaster (fileModificationSkew 5, maxFileModificationPolls 20)
allowSystemOperations : Allowing user-supplied system call operations

// * * * * * * * * * * * * * * * * * * * * * * * * * * * * * * * * * * * * * //
Create time

--> FOAM Warning : 
    From void* Foam::dlLibraryTable::openLibrary(const Foam::fileName&, bool)
    in file db/dynamicLibrary/dlLibraryTable/dlLibraryTable.C at line 188
    Could not load "libpetscFoam.so"
libpetscFoam.so: cannot open shared object file: No such file or directory
Create mesh for time = 0


SIMPLE: convergence criteria
    field p	 tolerance 1e-08
    field U	 tolerance 1e-08
    field k	 tolerance 1e-08
    field omega	 tolerance 1e-08
    field nuTilda	 tolerance 1e-08

Reading field p

Reading field U

Reading/calculating face flux field phi

Selecting incompressible transport model Newtonian
Selecting turbulence model type RAS
Selecting RAS turbulence model SpalartAllmaras
Selecting patchDistMethod meshWave
ft2 term: inactive
RAS
{
    RASModel        SpalartAllmaras;
    turbulence      on;
    printCoeffs     on;
    sigmaNut        0.66666;
    kappa           0.41;
    Cb1             0.1355;
    Cb2             0.622;
    Cw2             0.3;
    Cw3             2;
    Cv1             7.1;
    Cs              0.3;
    ck              0.07000000000000001;
    ft2             false;
    Ct3             1.2;
    Ct4             0.5;
}

No MRF models present

Creating finite volume options from "system/fvOptions"

Selecting finite volume options type velocityDampingConstraint
    Source: velocityDamping
    - selecting all cells
    - selected 25228544 cell(s) with volume 111.3033220641269

Starting time loop

--> FOAM Warning : 
    From bool Foam::functionObjectList::read()
    in file db/functionObjects/functionObjectList/functionObjectList.C at line 1035
    Reading "system/controlDict" at line 2 to 41
    Entry 'lref' is not a dictionary
--> FOAM Warning : 
    From bool Foam::functionObjectList::read()
    in file db/functionObjects/functionObjectList/functionObjectList.C at line 1035
    Reading "system/controlDict" at line 2 to 41
    Entry 'Aref' is not a dictionary
--> FOAM Warning : 
    From bool Foam::functionObjectList::read()
    in file db/functionObjects/functionObjectList/functionObjectList.C at line 1035
    Reading "system/controlDict" at line 2 to 41
    Entry 'yawAngle' is not a dictionary
--> FOAM Warning : 
    From bool Foam::functionObjectList::read()
    in file db/functionObjects/functionObjectList/functionObjectList.C at line 1035
    Reading "system/controlDict" at line 2 to 41
    Entry 'lDomain' is not a dictionary
--> FOAM Warning : 
    From bool Foam::functionObjectList::read()
    in file db/functionObjects/functionObjectList/functionObjectList.C at line 1035
    Reading "system/controlDict" at line 2 to 41
    Entry 'bDomain' is not a dictionary
--> FOAM Warning : 
    From bool Foam::functionObjectList::read()
    in file db/functionObjects/functionObjectList/functionObjectList.C at line 1035
    Reading "system/controlDict" at line 2 to 41
    Entry 'hDomain' is not a dictionary
--> FOAM Warning : 
    From bool Foam::functionObjectList::read()
    in file db/functionObjects/functionObjectList/functionObjectList.C at line 1035
    Reading "system/controlDict" at line 2 to 41
    Entry 'xCenter' is not a dictionary
--> FOAM Warning : 
    From bool Foam::functionObjectList::read()
    in file db/functionObjects/functionObjectList/functionObjectList.C at line 1035
    Reading "system/controlDict" at line 2 to 41
    Entry 'yCenter' is not a dictionary
--> FOAM Warning : 
    From bool Foam::functionObjectList::read()
    in file db/functionObjects/functionObjectList/functionObjectList.C at line 1035
    Reading "system/controlDict" at line 2 to 41
    Entry 'zCenter' is not a dictionary
--> FOAM Warning : 
    From bool Foam::functionObjectList::read()
    in file db/functionObjects/functionObjectList/functionObjectList.C at line 1035
    Reading "system/controlDict" at line 2 to 41
    Entry 'inletPatch' is not a dictionary
--> FOAM Warning : 
    From bool Foam::functionObjectList::read()
    in file db/functionObjects/functionObjectList/functionObjectList.C at line 1035
    Reading "system/controlDict" at line 2 to 41
    Entry 'outletPatch' is not a dictionary
--> FOAM Warning : 
    From bool Foam::functionObjectList::read()
    in file db/functionObjects/functionObjectList/functionObjectList.C at line 1035
    Reading "system/controlDict" at line 2 to 41
    Entry 'wallPatches' is not a dictionary
--> FOAM Warning : 
    From bool Foam::functionObjectList::read()
    in file db/functionObjects/functionObjectList/functionObjectList.C at line 1035
    Reading "system/controlDict" at line 2 to 41
    Entry 'forcesWallPatches' is not a dictionary
--> FOAM Warning : 
    From bool Foam::functionObjectList::read()
    in file db/functionObjects/functionObjectList/functionObjectList.C at line 1035
    Reading "system/controlDict" at line 2 to 41
    Entry 'symmPatches' is not a dictionary
--> FOAM Warning : 
    From bool Foam::functionObjectList::read()
    in file db/functionObjects/functionObjectList/functionObjectList.C at line 1035
    Reading "system/controlDict" at line 2 to 41
    Entry 'Uinf' is not a dictionary
--> FOAM Warning : 
    From bool Foam::functionObjectList::read()
    in file db/functionObjects/functionObjectList/functionObjectList.C at line 1035
    Reading "system/controlDict" at line 2 to 41
    Entry 'UinfMag' is not a dictionary
--> FOAM Warning : 
    From bool Foam::functionObjectList::read()
    in file db/functionObjects/functionObjectList/functionObjectList.C at line 1035
    Reading "system/controlDict" at line 2 to 41
    Entry 'nu' is not a dictionary
--> FOAM Warning : 
    From bool Foam::functionObjectList::read()
    in file db/functionObjects/functionObjectList/functionObjectList.C at line 1035
    Reading "system/controlDict" at line 2 to 41
    Entry 'pref' is not a dictionary
--> FOAM Warning : 
    From bool Foam::functionObjectList::read()
    in file db/functionObjects/functionObjectList/functionObjectList.C at line 1035
    Reading "system/controlDict" at line 2 to 41
    Entry 'viscRatio' is not a dictionary
--> FOAM Warning : 
    From bool Foam::functionObjectList::read()
    in file db/functionObjects/functionObjectList/functionObjectList.C at line 1035
    Reading "system/controlDict" at line 2 to 41
    Entry 'Tu' is not a dictionary
--> FOAM Warning : 
    From bool Foam::functionObjectList::read()
    in file db/functionObjects/functionObjectList/functionObjectList.C at line 1035
    Reading "system/controlDict" at line 2 to 41
    Entry 'LESturbModel' is not a dictionary
--> FOAM Warning : 
    From bool Foam::functionObjectList::read()
    in file db/functionObjects/functionObjectList/functionObjectList.C at line 1035
    Reading "system/controlDict" at line 2 to 41
    Entry 'RASturbModel' is not a dictionary
--> FOAM Warning : 
    From bool Foam::functionObjectList::read()
    in file db/functionObjects/functionObjectList/functionObjectList.C at line 1035
    Reading "system/controlDict" at line 2 to 41
    Entry 'deltaTurb' is not a dictionary
--> FOAM Warning : 
    From bool Foam::functionObjectList::read()
    in file db/functionObjects/functionObjectList/functionObjectList.C at line 1035
    Reading "system/controlDict" at line 2 to 41
    Entry 'dt' is not a dictionary
--> FOAM Warning : 
    From bool Foam::functionObjectList::read()
    in file db/functionObjects/functionObjectList/functionObjectList.C at line 1035
    Reading "system/controlDict" at line 2 to 41
    Entry 'tAvg' is not a dictionary
--> FOAM Warning : 
    From bool Foam::functionObjectList::read()
    in file db/functionObjects/functionObjectList/functionObjectList.C at line 1035
    Reading "system/controlDict" at line 2 to 41
    Entry 'tEnd' is not a dictionary
--> FOAM Warning : 
    From bool Foam::functionObjectList::read()
    in file db/functionObjects/functionObjectList/functionObjectList.C at line 1035
    Reading "system/controlDict" at line 2 to 41
    Entry 'writeInterval_' is not a dictionary
--> FOAM Warning : 
    From bool Foam::functionObjectList::read()
    in file db/functionObjects/functionObjectList/functionObjectList.C at line 1035
    Reading "system/controlDict" at line 2 to 41
    Entry 'nCores' is not a dictionary
--> FOAM Warning : 
    From bool Foam::functionObjectList::read()
    in file db/functionObjects/functionObjectList/functionObjectList.C at line 1035
    Reading "system/controlDict" at line 2 to 41
    Entry 'interpScheme' is not a dictionary
--> FOAM Warning : 
    From bool Foam::functionObjectList::read()
    in file db/functionObjects/functionObjectList/functionObjectList.C at line 1035
    Reading "system/controlDict" at line 2 to 41
    Entry 'probeField' is not a dictionary
wallShearStress wallShearStress:
    processing wall patches: 
        Windsor_Body
        CFDWT_Floor
        Windsor_Pins
        Windsor_Base
        Windsor_Body_2
        CFDWT_Floor_2
        Windsor_Pins_2
        Windsor_Base_2
        Windsor_Body_3
        CFDWT_Floor_3
        Windsor_Pins_3
        Windsor_Base_3
        Windsor_Body_4
        CFDWT_Floor_4
        Windsor_Pins_4
        Windsor_Base_4

pressure calc_cp:
    Operating mode: staticCoeff
    Not including hydrostatic effects

forceCoeffs forceCoeffsAll:
    rho: rhoInf
    Freestream density (rhoInf) set to 1
    Not including porosity effects
    magUInf: 40
    lRef   : 0.6375
    Aref   : 0.1124
    rhoInf : 1
    Selecting all coefficients
    - Drag force: Cd
    - Drag force front: Cd(f)
    - Drag force rear: Cd(r)
    - Lift force: Cl
    - Lift force front: Cl(f)
    - Lift force rear: Cl(r)
    - Pitch moment: CmPitch
    - Roll moment: CmRoll
    - Yaw moment: CmYaw
    - Side force: Cs
    - Side force front: Cs(f)
    - Side force rear: Cs(r)


forceCoeffs dragCoeffBase:
    rho: rhoInf
    Freestream density (rhoInf) set to 1
    Not including porosity effects
    magUInf: 40
    lRef   : 0.6375
    Aref   : 0.1124
    rhoInf : 1
    Selecting coefficients:
    - Drag force: Cd


Time = 1

velocityDampingConstraint velocityDamping damped 0 (0%) of cells, with max limit 300
[INFO] MatrixAssemblyU: 2234.497 [ms]
smoothSolver:  Solving for Ux, Initial residual = 0.9999999999992077, Final residual = 0.08732233337193035, No Iterations 15
smoothSolver:  Solving for Uy, Initial residual = 1, Final residual = 0.08969304284503429, No Iterations 31
smoothSolver:  Solving for Uz, Initial residual = 1, Final residual = 0.03285812320514451, No Iterations 2
[INFO] MomentumPredictor: 2237.814 [ms]
[INFO] MatrixAssemblyPI: 350.773 [ms]
[INFO] MatrixAssemblyPII: 172.45 [ms]
GAMG:  Solving for p, Initial residual = 1, Final residual = 0.009671949132086554, No Iterations 23
[INFO] SolveP: 5317.364 [ms]
time step continuity errors : sum local = 0.003548688966135419, global = 5.790738905610952e-06, cumulative = 5.790738905610952e-06
[INFO] postSolveP: 92.441 [ms]
smoothSolver:  Solving for nuTilda, Initial residual = 0.9999999959931107, Final residual = 0.06431094586865857, No Iterations 3
[INFO] TimeStep: 11767.747 [ms]
ExecutionTime = 43 s  ClockTime = 43 s

--> FOAM Warning : 
    From virtual bool Foam::functionObjects::fieldSelection::checkSelection()
    in file functionObjects/fieldSelections/fieldSelection/fieldSelection.C at line 166
    Field k not found
--> FOAM Warning : 
    From virtual bool Foam::functionObjects::fieldSelection::checkSelection()
    in file functionObjects/fieldSelections/fieldSelection/fieldSelection.C at line 166
    Field gammaInt not found
--> FOAM Warning : 
    From virtual bool Foam::functionObjects::fieldSelection::checkSelection()
    in file functionObjects/fieldSelections/fieldSelection/fieldSelection.C at line 166
    Field omega not found
--> FOAM Warning : 
    From virtual bool Foam::functionObjects::fieldSelection::checkSelection()
    in file functionObjects/fieldSelections/fieldSelection/fieldSelection.C at line 166
    Field ReThetat not found
--> FOAM Warning : 
    From virtual bool Foam::functionObjects::fieldSelection::checkSelection()
    in file functionObjects/fieldSelections/fieldSelection/fieldSelection.C at line 166
    Field epsilon not found
--> FOAM Warning : 
    From virtual bool Foam::functionObjects::solverFieldSelection::updateSelection()
    in file functionObjects/fieldSelections/solverFieldSelection/solverFieldSelection.C at line 85
    Valid solver fields are: 3(U nuTilda p)Time = 2

velocityDampingConstraint velocityDamping damped 0 (0%) of cells, with max limit 300
[INFO] MatrixAssemblyU: 2155.603 [ms]
smoothSolver:  Solving for Ux, Initial residual = 0.2130589611323864, Final residual = 0.01840319114126921, No Iterations 13
smoothSolver:  Solving for Uy, Initial residual = 0.3544216060567256, Final residual = 0.03304570312655508, No Iterations 13
smoothSolver:  Solving for Uz, Initial residual = 0.3289726745923113, Final residual = 0.0281313121439504, No Iterations 13
[INFO] MomentumPredictor: 1864.172 [ms]
[INFO] MatrixAssemblyPI: 350.015 [ms]
[INFO] MatrixAssemblyPII: 172.693 [ms]
GAMG:  Solving for p, Initial residual = 0.2100204897794598, Final residual = 0.001987742407738801, No Iterations 12
[INFO] SolveP: 2445.367 [ms]
time step continuity errors : sum local = 0.04069771243335969, global = -0.0003117581363024548, cumulative = -0.0003059673973968438
[INFO] postSolveP: 92.23999999999999 [ms]
smoothSolver:  Solving for nuTilda, Initial residual = 0.4059703600303758, Final residual = 0.02532347182128845, No Iterations 1
[INFO] TimeStep: 8376.485000000001 [ms]
ExecutionTime = 53.07 s  ClockTime = 54 s

Time = 3

velocityDampingConstraint velocityDamping damped 3324 (0.01%) of cells, with max limit 300
[INFO] MatrixAssemblyU: 2206.412 [ms]
smoothSolver:  Solving for Ux, Initial residual = 0.1257987145995673, Final residual = 0.01195640644884398, No Iterations 9
smoothSolver:  Solving for Uy, Initial residual = 0.2045661252415073, Final residual = 0.01994740531843075, No Iterations 10
smoothSolver:  Solving for Uz, Initial residual = 0.2162476877107196, Final residual = 0.02143636212468506, No Iterations 9
[INFO] MomentumPredictor: 1424.888 [ms]
[INFO] MatrixAssemblyPI: 351.347 [ms]
[INFO] MatrixAssemblyPII: 172.737 [ms]
GAMG:  Solving for p, Initial residual = 0.1073560547142694, Final residual = 0.0009793479559457047, No Iterations 10
[INFO] SolveP: 2053.874 [ms]
time step continuity errors : sum local = 0.01196765008827225, global = -0.0001179375391051612, cumulative = -0.000423904936502005
[INFO] postSolveP: 92.105 [ms]
smoothSolver:  Solving for nuTilda, Initial residual = 0.2084730582757541, Final residual = 0.01316071661698716, No Iterations 2
[INFO] TimeStep: 7639.148 [ms]
ExecutionTime = 62.45 s  ClockTime = 63 s

Time = 4

velocityDampingConstraint velocityDamping damped 0 (0%) of cells, with max limit 300
[INFO] MatrixAssemblyU: 2209.556 [ms]
smoothSolver:  Solving for Ux, Initial residual = 0.05394338735299148, Final residual = 0.004900165406125002, No Iterations 11
smoothSolver:  Solving for Uy, Initial residual = 0.1211554084997613, Final residual = 0.01064135324662501, No Iterations 11
smoothSolver:  Solving for Uz, Initial residual = 0.1309106053771925, Final residual = 0.01263924837340038, No Iterations 10
[INFO] MomentumPredictor: 1585.9 [ms]
[INFO] MatrixAssemblyPI: 350.651 [ms]
[INFO] MatrixAssemblyPII: 172.737 [ms]
GAMG:  Solving for p, Initial residual = 0.1454920270878904, Final residual = 0.001114234285231958, No Iterations 7
[INFO] SolveP: 1470.076 [ms]
time step continuity errors : sum local = 0.010301897189071, global = 0.0001160368194456831, cumulative = -0.0003078681170563219
[INFO] postSolveP: 92.83799999999999 [ms]
smoothSolver:  Solving for nuTilda, Initial residual = 0.1247604453983353, Final residual = 0.01049772161849882, No Iterations 2
[INFO] TimeStep: 7207.267 [ms]
ExecutionTime = 71.40000000000001 s  ClockTime = 72 s

Time = 5

velocityDampingConstraint velocityDamping damped 455 (0%) of cells, with max limit 300
[INFO] MatrixAssemblyU: 2190.576 [ms]
smoothSolver:  Solving for Ux, Initial residual = 0.04381717782962656, Final residual = 0.004179305339522193, No Iterations 10
smoothSolver:  Solving for Uy, Initial residual = 0.09674726555518316, Final residual = 0.0090203640176281, No Iterations 11
smoothSolver:  Solving for Uz, Initial residual = 0.1132309321435628, Final residual = 0.01112816128342273, No Iterations 10
[INFO] MomentumPredictor: 1541.406 [ms]
[INFO] MatrixAssemblyPI: 351.152 [ms]
[INFO] MatrixAssemblyPII: 172.489 [ms]
GAMG:  Solving for p, Initial residual = 0.11062985947368, Final residual = 0.001062613479251038, No Iterations 7
[INFO] SolveP: 1469.931 [ms]
time step continuity errors : sum local = 0.00735686417998016, global = 0.0001583701223271251, cumulative = -0.0001494979947291969
[INFO] postSolveP: 92.15000000000001 [ms]
smoothSolver:  Solving for nuTilda, Initial residual = 0.07086782516022713, Final residual = 0.00431259990617097, No Iterations 3
[INFO] TimeStep: 7175.814 [ms]
ExecutionTime = 80.31999999999999 s  ClockTime = 81 s

Time = 6

velocityDampingConstraint velocityDamping damped 0 (0%) of cells, with max limit 300
[INFO] MatrixAssemblyU: 2179.667 [ms]
smoothSolver:  Solving for Ux, Initial residual = 0.02987876774189042, Final residual = 0.002662052609088025, No Iterations 12
smoothSolver:  Solving for Uy, Initial residual = 0.07444555757971139, Final residual = 0.00688700307594857, No Iterations 12
smoothSolver:  Solving for Uz, Initial residual = 0.0812293928952128, Final residual = 0.006964910030241474, No Iterations 12
[INFO] MomentumPredictor: 1744.102 [ms]
[INFO] MatrixAssemblyPI: 350.54 [ms]
[INFO] MatrixAssemblyPII: 172.932 [ms]
GAMG:  Solving for p, Initial residual = 0.09325281793645793, Final residual = 0.0009074740368657718, No Iterations 6
[INFO] SolveP: 1271.36 [ms]
time step continuity errors : sum local = 0.006885232455534093, global = 3.550619443200826e-05, cumulative = -0.0001139918002971886
[INFO] postSolveP: 92.58 [ms]
smoothSolver:  Solving for nuTilda, Initial residual = 0.06427472265820638, Final residual = 0.0030026434734929, No Iterations 3
[INFO] TimeStep: 7165.01 [ms]
ExecutionTime = 89.19 s  ClockTime = 90 s

Time = 7

velocityDampingConstraint velocityDamping damped 53 (0%) of cells, with max limit 300
[INFO] MatrixAssemblyU: 2168.214 [ms]
smoothSolver:  Solving for Ux, Initial residual = 0.0270202831772374, Final residual = 0.002416165091764324, No Iterations 12
smoothSolver:  Solving for Uy, Initial residual = 0.06742678556930608, Final residual = 0.006418840418386551, No Iterations 12
smoothSolver:  Solving for Uz, Initial residual = 0.07127740854218276, Final residual = 0.006262569284360413, No Iterations 12
[INFO] MomentumPredictor: 1750.347 [ms]
[INFO] MatrixAssemblyPI: 351.441 [ms]
[INFO] MatrixAssemblyPII: 172.307 [ms]
GAMG:  Solving for p, Initial residual = 0.07961374927172747, Final residual = 0.0006894074663196887, No Iterations 6
[INFO] SolveP: 1274.09 [ms]
time step continuity errors : sum local = 0.005242439256800391, global = -3.918289415053483e-05, cumulative = -0.0001531746944477234
[INFO] postSolveP: 92.492 [ms]
smoothSolver:  Solving for nuTilda, Initial residual = 0.04910073859830663, Final residual = 0.003230154213919411, No Iterations 3
[INFO] TimeStep: 7160.777 [ms]
ExecutionTime = 98.06999999999999 s  ClockTime = 99 s

Time = 8

velocityDampingConstraint velocityDamping damped 0 (0%) of cells, with max limit 300
[INFO] MatrixAssemblyU: 2164.258 [ms]
smoothSolver:  Solving for Ux, Initial residual = 0.02311172205729074, Final residual = 0.00214455369989742, No Iterations 12
smoothSolver:  Solving for Uy, Initial residual = 0.06016144011975788, Final residual = 0.005924757200431743, No Iterations 12
smoothSolver:  Solving for Uz, Initial residual = 0.0621244888749811, Final residual = 0.005641266448351017, No Iterations 12
[INFO] MomentumPredictor: 1744.183 [ms]
[INFO] MatrixAssemblyPI: 351.642 [ms]
[INFO] MatrixAssemblyPII: 172.301 [ms]
GAMG:  Solving for p, Initial residual = 0.07301963318489101, Final residual = 0.0004898767696797602, No Iterations 6
[INFO] SolveP: 1273.487 [ms]
time step continuity errors : sum local = 0.003749768239569091, global = -1.841963004176275e-05, cumulative = -0.0001715943244894862
[INFO] postSolveP: 92.488 [ms]
smoothSolver:  Solving for nuTilda, Initial residual = 0.06542036356836897, Final residual = 0.00585760074772809, No Iterations 2
[INFO] TimeStep: 7109.632 [ms]
ExecutionTime = 106.87 s  ClockTime = 108 s

Time = 9

velocityDampingConstraint velocityDamping damped 0 (0%) of cells, with max limit 300
[INFO] MatrixAssemblyU: 2157.593 [ms]
smoothSolver:  Solving for Ux, Initial residual = 0.02038815636024041, Final residual = 0.001904970049228257, No Iterations 12
smoothSolver:  Solving for Uy, Initial residual = 0.05429873071873004, Final residual = 0.004614065493676251, No Iterations 13
smoothSolver:  Solving for Uz, Initial residual = 0.05522809051147437, Final residual = 0.005136830900936017, No Iterations 12
[INFO] MomentumPredictor: 1779.211 [ms]
[INFO] MatrixAssemblyPI: 351.265 [ms]
[INFO] MatrixAssemblyPII: 172.237 [ms]
GAMG:  Solving for p, Initial residual = 0.06718537585375761, Final residual = 0.0006262363855543665, No Iterations 5
[INFO] SolveP: 1074.242 [ms]
time step continuity errors : sum local = 0.004812317891935718, global = -2.620884635087763e-05, cumulative = -0.0001978031708403638
[INFO] postSolveP: 92.172 [ms]
smoothSolver:  Solving for nuTilda, Initial residual = 0.04412565050077717, Final residual = 0.003201024669976524, No Iterations 3
[INFO] TimeStep: 6977.129 [ms]
ExecutionTime = 115.54 s  ClockTime = 116 s

Time = 10

velocityDampingConstraint velocityDamping damped 0 (0%) of cells, with max limit 300
[INFO] MatrixAssemblyU: 2159.634 [ms]
smoothSolver:  Solving for Ux, Initial residual = 0.01834806521274134, Final residual = 0.001729474331360235, No Iterations 12
smoothSolver:  Solving for Uy, Initial residual = 0.04986104212404652, Final residual = 0.004954419714817458, No Iterations 12
smoothSolver:  Solving for Uz, Initial residual = 0.05054344344836528, Final residual = 0.004765334784224329, No Iterations 12
[INFO] MomentumPredictor: 1744.212 [ms]
[INFO] MatrixAssemblyPI: 352.827 [ms]
[INFO] MatrixAssemblyPII: 173.398 [ms]
GAMG:  Solving for p, Initial residual = 0.06150888455067056, Final residual = 0.0005787242692875404, No Iterations 5
[INFO] SolveP: 1078.477 [ms]
time step continuity errors : sum local = 0.004405947833553296, global = 9.005394123793454e-06, cumulative = -0.0001887977767165704
[INFO] postSolveP: 93.044 [ms]
smoothSolver:  Solving for nuTilda, Initial residual = 0.0697753206011073, Final residual = 0.005485443411143722, No Iterations 2
[INFO] TimeStep: 6912.953 [ms]
ExecutionTime = 124.15 s  ClockTime = 125 s

Time = 11

velocityDampingConstraint velocityDamping damped 0 (0%) of cells, with max limit 300
[INFO] MatrixAssemblyU: 2158.303 [ms]
smoothSolver:  Solving for Ux, Initial residual = 0.01669597698371515, Final residual = 0.001606077065444668, No Iterations 12
smoothSolver:  Solving for Uy, Initial residual = 0.04717907578617479, Final residual = 0.004659891693880256, No Iterations 12
smoothSolver:  Solving for Uz, Initial residual = 0.04735446842443092, Final residual = 0.004496204740378287, No Iterations 12
[INFO] MomentumPredictor: 1739.169 [ms]
[INFO] MatrixAssemblyPI: 352.15 [ms]
[INFO] MatrixAssemblyPII: 172.338 [ms]
GAMG:  Solving for p, Initial residual = 0.05698402264755013, Final residual = 0.0005663308387946005, No Iterations 5
[INFO] SolveP: 1078.663 [ms]
time step continuity errors : sum local = 0.004340214826288169, global = 2.476043639988426e-05, cumulative = -0.0001640373403166861
[INFO] postSolveP: 92.504 [ms]
smoothSolver:  Solving for nuTilda, Initial residual = 0.03912236065810613, Final residual = 0.003026594415066436, No Iterations 3
[INFO] TimeStep: 6942.94 [ms]
ExecutionTime = 132.8 s  ClockTime = 134 s

Time = 12

velocityDampingConstraint velocityDamping damped 0 (0%) of cells, with max limit 300
[INFO] MatrixAssemblyU: 2154.683 [ms]
smoothSolver:  Solving for Ux, Initial residual = 0.01555818956857664, Final residual = 0.001518925889900484, No Iterations 12
smoothSolver:  Solving for Uy, Initial residual = 0.04522441033446858, Final residual = 0.004440067544909576, No Iterations 12
smoothSolver:  Solving for Uz, Initial residual = 0.0449241472888371, Final residual = 0.004287086650097333, No Iterations 12
[INFO] MomentumPredictor: 1745.908 [ms]
[INFO] MatrixAssemblyPI: 350.626 [ms]
[INFO] MatrixAssemblyPII: 172.173 [ms]
GAMG:  Solving for p, Initial residual = 0.05300856205528096, Final residual = 0.0003352063629991754, No Iterations 6
[INFO] SolveP: 1274.16 [ms]
time step continuity errors : sum local = 0.002585049681528377, global = 2.58575718880436e-05, cumulative = -0.0001381797684286425
[INFO] postSolveP: 92.764 [ms]
smoothSolver:  Solving for nuTilda, Initial residual = 0.06553905373998165, Final residual = 0.005100249911594429, No Iterations 2
[INFO] TimeStep: 7098.983 [ms]
ExecutionTime = 141.59 s  ClockTime = 142 s

Time = 13

velocityDampingConstraint velocityDamping damped 0 (0%) of cells, with max limit 300
[INFO] MatrixAssemblyU: 2152.506 [ms]
smoothSolver:  Solving for Ux, Initial residual = 0.01452996236055186, Final residual = 0.001445602010320506, No Iterations 12
smoothSolver:  Solving for Uy, Initial residual = 0.04336868986695226, Final residual = 0.004250857858589183, No Iterations 12
smoothSolver:  Solving for Uz, Initial residual = 0.04309174723049386, Final residual = 0.004138992805083146, No Iterations 12
[INFO] MomentumPredictor: 1738.032 [ms]
[INFO] MatrixAssemblyPI: 351.476 [ms]
[INFO] MatrixAssemblyPII: 172.255 [ms]
GAMG:  Solving for p, Initial residual = 0.04973053740968948, Final residual = 0.0003135526206185348, No Iterations 6
[INFO] SolveP: 1272.596 [ms]
time step continuity errors : sum local = 0.002435438712734128, global = 2.189839854684244e-05, cumulative = -0.0001162813698818001
[INFO] postSolveP: 92.13200000000001 [ms]
smoothSolver:  Solving for nuTilda, Initial residual = 0.03468387861947732, Final residual = 0.002829409726923352, No Iterations 3
[INFO] TimeStep: 7125.905 [ms]
ExecutionTime = 150.4 s  ClockTime = 151 s

Time = 14

velocityDampingConstraint velocityDamping damped 0 (0%) of cells, with max limit 300
[INFO] MatrixAssemblyU: 2151.208 [ms]
smoothSolver:  Solving for Ux, Initial residual = 0.01369117380945002, Final residual = 0.001173535379132326, No Iterations 13
smoothSolver:  Solving for Uy, Initial residual = 0.0415586274916452, Final residual = 0.004084268737986784, No Iterations 12
smoothSolver:  Solving for Uz, Initial residual = 0.04203982223780711, Final residual = 0.004059123069245196, No Iterations 12
[INFO] MomentumPredictor: 1793.665 [ms]
[INFO] MatrixAssemblyPI: 350.102 [ms]
[INFO] MatrixAssemblyPII: 172.419 [ms]
GAMG:  Solving for p, Initial residual = 0.04727076055784661, Final residual = 0.0002973603873006958, No Iterations 6
[INFO] SolveP: 1271.911 [ms]
time step continuity errors : sum local = 0.002319729427206428, global = 1.116050541203195e-05, cumulative = -0.0001051208644697681
[INFO] postSolveP: 92.45399999999999 [ms]
smoothSolver:  Solving for nuTilda, Initial residual = 0.05812673019294098, Final residual = 0.004800383915929156, No Iterations 2
[INFO] TimeStep: 7137.606 [ms]
ExecutionTime = 159.23 s  ClockTime = 160 s

Time = 15

velocityDampingConstraint velocityDamping damped 0 (0%) of cells, with max limit 300
[INFO] MatrixAssemblyU: 2149.862 [ms]
smoothSolver:  Solving for Ux, Initial residual = 0.01282288233406558, Final residual = 0.001110343749646035, No Iterations 13
smoothSolver:  Solving for Uy, Initial residual = 0.04013593537103102, Final residual = 0.003969494390628853, No Iterations 12
smoothSolver:  Solving for Uz, Initial residual = 0.04168199747299797, Final residual = 0.004048097974438944, No Iterations 12
[INFO] MomentumPredictor: 1780.554 [ms]
[INFO] MatrixAssemblyPI: 349.912 [ms]
[INFO] MatrixAssemblyPII: 172.429 [ms]
GAMG:  Solving for p, Initial residual = 0.0456743496049386, Final residual = 0.0002944537742721158, No Iterations 6
[INFO] SolveP: 1271.437 [ms]
time step continuity errors : sum local = 0.002307621312263759, global = -3.059507169214381e-06, cumulative = -0.0001081803716389825
[INFO] postSolveP: 91.944 [ms]
smoothSolver:  Solving for nuTilda, Initial residual = 0.03130671374956352, Final residual = 0.002662463955851163, No Iterations 3
[INFO] TimeStep: 7161.571 [ms]
ExecutionTime = 168.08 s  ClockTime = 169 s

Time = 16

velocityDampingConstraint velocityDamping damped 0 (0%) of cells, with max limit 300
[INFO] MatrixAssemblyU: 2146.705 [ms]
smoothSolver:  Solving for Ux, Initial residual = 0.01218429609556026, Final residual = 0.001054466016075937, No Iterations 13
smoothSolver:  Solving for Uy, Initial residual = 0.03921713485519331, Final residual = 0.003897263221117327, No Iterations 12
smoothSolver:  Solving for Uz, Initial residual = 0.0415935075322549, Final residual = 0.004050516529091804, No Iterations 12
[INFO] MomentumPredictor: 1783.816 [ms]
[INFO] MatrixAssemblyPI: 350.599 [ms]
[INFO] MatrixAssemblyPII: 172.67 [ms]
GAMG:  Solving for p, Initial residual = 0.04438231555399833, Final residual = 0.0002967402456710174, No Iterations 6
[INFO] SolveP: 1272.653 [ms]
time step continuity errors : sum local = 0.002332932918737712, global = -1.184367968314566e-05, cumulative = -0.0001200240513221282
[INFO] postSolveP: 92.366 [ms]
smoothSolver:  Solving for nuTilda, Initial residual = 0.05168182493935252, Final residual = 0.004551627810727818, No Iterations 2
[INFO] TimeStep: 7124.005 [ms]
ExecutionTime = 176.89 s  ClockTime = 178 s

Time = 17

velocityDampingConstraint velocityDamping damped 0 (0%) of cells, with max limit 300
[INFO] MatrixAssemblyU: 2145.069 [ms]
smoothSolver:  Solving for Ux, Initial residual = 0.01156521107878128, Final residual = 0.001005786118847931, No Iterations 13
smoothSolver:  Solving for Uy, Initial residual = 0.038679282029094, Final residual = 0.003865327117576863, No Iterations 12
smoothSolver:  Solving for Uz, Initial residual = 0.04153939890684685, Final residual = 0.004053048717283987, No Iterations 12
[INFO] MomentumPredictor: 1779.471 [ms]
[INFO] MatrixAssemblyPI: 349.698 [ms]
[INFO] MatrixAssemblyPII: 172.732 [ms]
GAMG:  Solving for p, Initial residual = 0.04390301300947051, Final residual = 0.0002982639141805646, No Iterations 6
[INFO] SolveP: 1272.973 [ms]
time step continuity errors : sum local = 0.002358952347596645, global = -1.398875447370871e-05, cumulative = -0.0001340128057958369
[INFO] postSolveP: 92.06 [ms]
smoothSolver:  Solving for nuTilda, Initial residual = 0.02882111445903455, Final residual = 0.002513644098156641, No Iterations 3
[INFO] TimeStep: 7155.65 [ms]
ExecutionTime = 185.72 s  ClockTime = 187 s

Time = 18

velocityDampingConstraint velocityDamping damped 0 (0%) of cells, with max limit 300
[INFO] MatrixAssemblyU: 2143.656 [ms]
smoothSolver:  Solving for Ux, Initial residual = 0.01122071676103544, Final residual = 0.0009659101191591968, No Iterations 13
smoothSolver:  Solving for Uy, Initial residual = 0.03854668960279441, Final residual = 0.003295662111792228, No Iterations 13
smoothSolver:  Solving for Uz, Initial residual = 0.0417346087500532, Final residual = 0.004057430954357063, No Iterations 12
[INFO] MomentumPredictor: 1823.833 [ms]
[INFO] MatrixAssemblyPI: 351.208 [ms]
[INFO] MatrixAssemblyPII: 172.374 [ms]
GAMG:  Solving for p, Initial residual = 0.04379576954285715, Final residual = 0.0002945701546096164, No Iterations 6
[INFO] SolveP: 1275.457 [ms]
time step continuity errors : sum local = 0.002344713749136598, global = -6.026716401243047e-06, cumulative = -0.0001400395221970799
[INFO] postSolveP: 92.444 [ms]
smoothSolver:  Solving for nuTilda, Initial residual = 0.04634948842831682, Final residual = 0.004301160987645694, No Iterations 2
[INFO] TimeStep: 7161.722 [ms]
ExecutionTime = 194.57 s  ClockTime = 196 s

Time = 19

velocityDampingConstraint velocityDamping damped 0 (0%) of cells, with max limit 300
[INFO] MatrixAssemblyU: 2142.66 [ms]
smoothSolver:  Solving for Ux, Initial residual = 0.01087050837786764, Final residual = 0.000935673842597378, No Iterations 13
smoothSolver:  Solving for Uy, Initial residual = 0.03882926202316318, Final residual = 0.003314537378169484, No Iterations 13
smoothSolver:  Solving for Uz, Initial residual = 0.04250735495494414, Final residual = 0.004104438482036032, No Iterations 12
[INFO] MomentumPredictor: 1819.72 [ms]
[INFO] MatrixAssemblyPI: 350.617 [ms]
[INFO] MatrixAssemblyPII: 172.546 [ms]
GAMG:  Solving for p, Initial residual = 0.04401600915993444, Final residual = 0.0002742287036450833, No Iterations 6
[INFO] SolveP: 1272.031 [ms]
time step continuity errors : sum local = 0.002197442852606708, global = 5.628467405129797e-06, cumulative = -0.0001344110547919501
[INFO] postSolveP: 92.38800000000001 [ms]
smoothSolver:  Solving for nuTilda, Initial residual = 0.02687861185197485, Final residual = 0.00236456532131667, No Iterations 3
[INFO] TimeStep: 7191.805 [ms]
ExecutionTime = 203.44 s  ClockTime = 205 s

Time = 20

velocityDampingConstraint velocityDamping damped 0 (0%) of cells, with max limit 300
[INFO] MatrixAssemblyU: 2139.73 [ms]
smoothSolver:  Solving for Ux, Initial residual = 0.01069594589494853, Final residual = 0.0009165762431069906, No Iterations 13
smoothSolver:  Solving for Uy, Initial residual = 0.03922409606092329, Final residual = 0.003912876169170951, No Iterations 12
smoothSolver:  Solving for Uz, Initial residual = 0.04312549960585393, Final residual = 0.004138456764633264, No Iterations 12
[INFO] MomentumPredictor: 1785.472 [ms]
[INFO] MatrixAssemblyPI: 350.36 [ms]
[INFO] MatrixAssemblyPII: 172.399 [ms]
GAMG:  Solving for p, Initial residual = 0.04390516448989721, Final residual = 0.0004354535859802959, No Iterations 5
[INFO] SolveP: 1077.843 [ms]
time step continuity errors : sum local = 0.003521096202935802, global = 1.500575268261887e-05, cumulative = -0.0001194053021093313
[INFO] postSolveP: 92.136 [ms]
smoothSolver:  Solving for nuTilda, Initial residual = 0.04180694121126242, Final residual = 0.004047578506223003, No Iterations 2
[INFO] TimeStep: 6922.029 [ms]
ExecutionTime = 212.05 s  ClockTime = 213 s

Time = 21

velocityDampingConstraint velocityDamping damped 0 (0%) of cells, with max limit 300
[INFO] MatrixAssemblyU: 2140.353 [ms]
smoothSolver:  Solving for Ux, Initial residual = 0.01049018675322745, Final residual = 0.0009024806826455529, No Iterations 13
smoothSolver:  Solving for Uy, Initial residual = 0.03984062917843223, Final residual = 0.003959807906328061, No Iterations 12
smoothSolver:  Solving for Uz, Initial residual = 0.04345207252570437, Final residual = 0.004134387051783778, No Iterations 12
[INFO] MomentumPredictor: 1777.659 [ms]
[INFO] MatrixAssemblyPI: 351.694 [ms]
[INFO] MatrixAssemblyPII: 172.207 [ms]
GAMG:  Solving for p, Initial residual = 0.04394243459392121, Final residual = 0.0002736402577427945, No Iterations 6
[INFO] SolveP: 1273.178 [ms]
time step continuity errors : sum local = 0.002239687529379951, global = 2.141279746876664e-05, cumulative = -9.799250464056461e-05
[INFO] postSolveP: 91.935 [ms]
smoothSolver:  Solving for nuTilda, Initial residual = 0.02511793389968349, Final residual = 0.002219245930552719, No Iterations 3
[INFO] TimeStep: 7148.99 [ms]
ExecutionTime = 220.87 s  ClockTime = 222 s

Time = 22

velocityDampingConstraint velocityDamping damped 0 (0%) of cells, with max limit 300
[INFO] MatrixAssemblyU: 2137.995 [ms]
smoothSolver:  Solving for Ux, Initial residual = 0.0104591226159084, Final residual = 0.0008920069964181802, No Iterations 13
smoothSolver:  Solving for Uy, Initial residual = 0.04050048474026528, Final residual = 0.003988083991390383, No Iterations 12
smoothSolver:  Solving for Uz, Initial residual = 0.04343271906112242, Final residual = 0.004100063002755248, No Iterations 12
[INFO] MomentumPredictor: 1783.016 [ms]
[INFO] MatrixAssemblyPI: 350.641 [ms]
[INFO] MatrixAssemblyPII: 172.652 [ms]
GAMG:  Solving for p, Initial residual = 0.04362337903416693, Final residual = 0.000277520648727577, No Iterations 6
[INFO] SolveP: 1275.661 [ms]
time step continuity errors : sum local = 0.002306453821032223, global = 2.428257299050092e-05, cumulative = -7.370993165006369e-05
[INFO] postSolveP: 92.295 [ms]
smoothSolver:  Solving for nuTilda, Initial residual = 0.03794402466685645, Final residual = 0.002018728731999153, No Iterations 3
[INFO] TimeStep: 7154.552 [ms]
ExecutionTime = 229.71 s  ClockTime = 231 s

Time = 23

velocityDampingConstraint velocityDamping damped 0 (0%) of cells, with max limit 300
[INFO] MatrixAssemblyU: 2137.987 [ms]
smoothSolver:  Solving for Ux, Initial residual = 0.01032848066604738, Final residual = 0.0008824948810304197, No Iterations 13
smoothSolver:  Solving for Uy, Initial residual = 0.0410883824091841, Final residual = 0.003991516718590416, No Iterations 12
smoothSolver:  Solving for Uz, Initial residual = 0.04300084623513437, Final residual = 0.004016188098020212, No Iterations 12
[INFO] MomentumPredictor: 1780.892 [ms]
[INFO] MatrixAssemblyPI: 352.009 [ms]
[INFO] MatrixAssemblyPII: 172.103 [ms]
GAMG:  Solving for p, Initial residual = 0.04335544284409359, Final residual = 0.0002920202186874828, No Iterations 6
[INFO] SolveP: 1273.231 [ms]
time step continuity errors : sum local = 0.002464884371590552, global = 2.996767821818516e-05, cumulative = -4.374225343187853e-05
[INFO] postSolveP: 92.05 [ms]
smoothSolver:  Solving for nuTilda, Initial residual = 0.02332796089441682, Final residual = 0.002087711996192606, No Iterations 3
[INFO] TimeStep: 7147.67 [ms]
ExecutionTime = 238.52 s  ClockTime = 240 s

Time = 24

velocityDampingConstraint velocityDamping damped 0 (0%) of cells, with max limit 300
[INFO] MatrixAssemblyU: 2138.618 [ms]
smoothSolver:  Solving for Ux, Initial residual = 0.01034939909578815, Final residual = 0.00102901352179541, No Iterations 12
smoothSolver:  Solving for Uy, Initial residual = 0.041788942607585, Final residual = 0.004028409443542465, No Iterations 12
smoothSolver:  Solving for Uz, Initial residual = 0.04256785902023812, Final residual = 0.003938536894209507, No Iterations 12
[INFO] MomentumPredictor: 1743.052 [ms]
[INFO] MatrixAssemblyPI: 350.498 [ms]
[INFO] MatrixAssemblyPII: 172.461 [ms]
GAMG:  Solving for p, Initial residual = 0.04297996341742377, Final residual = 0.0002831991770813007, No Iterations 6
[INFO] SolveP: 1272.812 [ms]
time step continuity errors : sum local = 0.002430609393445893, global = 2.899257687557243e-05, cumulative = -1.47496765563061e-05
[INFO] postSolveP: 92.435 [ms]
smoothSolver:  Solving for nuTilda, Initial residual = 0.03444755914823726, Final residual = 0.001909615492639041, No Iterations 3
[INFO] TimeStep: 7110.846 [ms]
ExecutionTime = 247.31 s  ClockTime = 249 s

Time = 25

velocityDampingConstraint velocityDamping damped 0 (0%) of cells, with max limit 300
[INFO] MatrixAssemblyU: 2139.074 [ms]
smoothSolver:  Solving for Ux, Initial residual = 0.01029180156529225, Final residual = 0.0008804775888006072, No Iterations 13
smoothSolver:  Solving for Uy, Initial residual = 0.0426122489657344, Final residual = 0.004119593767209557, No Iterations 12
smoothSolver:  Solving for Uz, Initial residual = 0.04230408733571996, Final residual = 0.003903068667583876, No Iterations 12
[INFO] MomentumPredictor: 1778.944 [ms]
[INFO] MatrixAssemblyPI: 351.292 [ms]
[INFO] MatrixAssemblyPII: 172.378 [ms]
GAMG:  Solving for p, Initial residual = 0.04228571897853983, Final residual = 0.0002779285892138488, No Iterations 6
[INFO] SolveP: 1272.28 [ms]
time step continuity errors : sum local = 0.002428040524194332, global = 3.296247155713117e-05, cumulative = 1.821279500082507e-05
[INFO] postSolveP: 92.47499999999999 [ms]
smoothSolver:  Solving for nuTilda, Initial residual = 0.02149089296721663, Final residual = 0.001956654722243778, No Iterations 3
[INFO] TimeStep: 7147.13 [ms]
ExecutionTime = 256.13 s  ClockTime = 257 s

Time = 26

velocityDampingConstraint velocityDamping damped 0 (0%) of cells, with max limit 300
[INFO] MatrixAssemblyU: 2136.993 [ms]
smoothSolver:  Solving for Ux, Initial residual = 0.01036554379452255, Final residual = 0.001032831886206552, No Iterations 12
smoothSolver:  Solving for Uy, Initial residual = 0.04353836710471619, Final residual = 0.004268338380392033, No Iterations 12
smoothSolver:  Solving for Uz, Initial residual = 0.04228840406642898, Final residual = 0.003946894915113179, No Iterations 12
[INFO] MomentumPredictor: 1743.579 [ms]
[INFO] MatrixAssemblyPI: 350.287 [ms]
[INFO] MatrixAssemblyPII: 172.352 [ms]
GAMG:  Solving for p, Initial residual = 0.04185483786959647, Final residual = 0.0002928523578388143, No Iterations 6
[INFO] SolveP: 1272.935 [ms]
time step continuity errors : sum local = 0.002592268564663964, global = 3.420547656437574e-05, cumulative = 5.241827156520081e-05
[INFO] postSolveP: 92.364 [ms]
smoothSolver:  Solving for nuTilda, Initial residual = 0.03147938784087314, Final residual = 0.001804020249736522, No Iterations 3
[INFO] TimeStep: 7109.58 [ms]
ExecutionTime = 264.92 s  ClockTime = 266 s

Time = 27

velocityDampingConstraint velocityDamping damped 0 (0%) of cells, with max limit 300
[INFO] MatrixAssemblyU: 2136.918 [ms]
smoothSolver:  Solving for Ux, Initial residual = 0.01036563537633081, Final residual = 0.001034374695317073, No Iterations 12
smoothSolver:  Solving for Uy, Initial residual = 0.0445578439212038, Final residual = 0.00443435003332629, No Iterations 12
smoothSolver:  Solving for Uz, Initial residual = 0.04257822810667192, Final residual = 0.0040295624010033, No Iterations 12
[INFO] MomentumPredictor: 1738.741 [ms]
[INFO] MatrixAssemblyPI: 351.254 [ms]
[INFO] MatrixAssemblyPII: 172.264 [ms]
GAMG:  Solving for p, Initial residual = 0.04207894948581478, Final residual = 0.0003037006079307473, No Iterations 6
[INFO] SolveP: 1274.412 [ms]
time step continuity errors : sum local = 0.002724733741785207, global = 3.970121225938324e-05, cumulative = 9.211948382458405e-05
[INFO] postSolveP: 92.349 [ms]
smoothSolver:  Solving for nuTilda, Initial residual = 0.01981815587153935, Final residual = 0.001831367159454006, No Iterations 3
[INFO] TimeStep: 7106.113 [ms]
ExecutionTime = 273.71 s  ClockTime = 275 s

Time = 28

velocityDampingConstraint velocityDamping damped 0 (0%) of cells, with max limit 300
[INFO] MatrixAssemblyU: 2136.777 [ms]
smoothSolver:  Solving for Ux, Initial residual = 0.01051069890408568, Final residual = 0.001038043609794307, No Iterations 12
smoothSolver:  Solving for Uy, Initial residual = 0.0459082527926903, Final residual = 0.003934744587339762, No Iterations 13
smoothSolver:  Solving for Uz, Initial residual = 0.04358438708042408, Final residual = 0.004140996917418724, No Iterations 12
[INFO] MomentumPredictor: 1783.604 [ms]
[INFO] MatrixAssemblyPI: 350.387 [ms]
[INFO] MatrixAssemblyPII: 172.372 [ms]
GAMG:  Solving for p, Initial residual = 0.04297861141792461, Final residual = 0.0003064410495046127, No Iterations 6
[INFO] SolveP: 1274.52 [ms]
time step continuity errors : sum local = 0.002786720632304672, global = 4.028288050261063e-05, cumulative = 0.0001324023643271947
[INFO] postSolveP: 92.374 [ms]
smoothSolver:  Solving for nuTilda, Initial residual = 0.02894423396256814, Final residual = 0.001697169542263822, No Iterations 3
[INFO] TimeStep: 7150.724 [ms]
ExecutionTime = 282.53 s  ClockTime = 284 s

Time = 29

velocityDampingConstraint velocityDamping damped 0 (0%) of cells, with max limit 300
[INFO] MatrixAssemblyU: 2134.073 [ms]
smoothSolver:  Solving for Ux, Initial residual = 0.01054995515025539, Final residual = 0.001040329122638118, No Iterations 12
smoothSolver:  Solving for Uy, Initial residual = 0.04748120777697024, Final residual = 0.004071422869845141, No Iterations 13
smoothSolver:  Solving for Uz, Initial residual = 0.04502529504859151, Final residual = 0.00428176047615381, No Iterations 12
[INFO] MomentumPredictor: 1781.089 [ms]
[INFO] MatrixAssemblyPI: 351.7 [ms]
[INFO] MatrixAssemblyPII: 172.487 [ms]
GAMG:  Solving for p, Initial residual = 0.04392936550026892, Final residual = 0.0002908475908769668, No Iterations 6
[INFO] SolveP: 1270.998 [ms]
time step continuity errors : sum local = 0.002681180597857224, global = 3.865009323537999e-05, cumulative = 0.0001710524575625747
[INFO] postSolveP: 91.88800000000001 [ms]
smoothSolver:  Solving for nuTilda, Initial residual = 0.01833492196412486, Final residual = 0.001708091444386694, No Iterations 3
[INFO] TimeStep: 7143.213 [ms]
ExecutionTime = 291.35 s  ClockTime = 293 s

Time = 30

velocityDampingConstraint velocityDamping damped 0 (0%) of cells, with max limit 300
[INFO] MatrixAssemblyU: 2130.789 [ms]
smoothSolver:  Solving for Ux, Initial residual = 0.01074526980792664, Final residual = 0.001046870403065253, No Iterations 12
smoothSolver:  Solving for Uy, Initial residual = 0.04953528634881554, Final residual = 0.004217818146321707, No Iterations 13
smoothSolver:  Solving for Uz, Initial residual = 0.04660460441193841, Final residual = 0.004415352753006098, No Iterations 12
[INFO] MomentumPredictor: 1784.164 [ms]
[INFO] MatrixAssemblyPI: 350.276 [ms]
[INFO] MatrixAssemblyPII: 172.58 [ms]
GAMG:  Solving for p, Initial residual = 0.04478961310745231, Final residual = 0.0002754939077241322, No Iterations 6
[INFO] SolveP: 1272.839 [ms]
time step continuity errors : sum local = 0.002575675531632177, global = 3.333420320200214e-05, cumulative = 0.0002043866607645768
[INFO] postSolveP: 92.271 [ms]
smoothSolver:  Solving for nuTilda, Initial residual = 0.02675734335178355, Final residual = 0.001590215939557293, No Iterations 3
[INFO] TimeStep: 7142.027 [ms]
ExecutionTime = 300.16 s  ClockTime = 302 s

Time = 31

velocityDampingConstraint velocityDamping damped 0 (0%) of cells, with max limit 300
[INFO] MatrixAssemblyU: 2131.236 [ms]
smoothSolver:  Solving for Ux, Initial residual = 0.01081696285372068, Final residual = 0.00105354247517815, No Iterations 12
smoothSolver:  Solving for Uy, Initial residual = 0.05185226683429491, Final residual = 0.005159249170793638, No Iterations 12
smoothSolver:  Solving for Uz, Initial residual = 0.04830207691793349, Final residual = 0.004569422866025549, No Iterations 12
[INFO] MomentumPredictor: 1739.809 [ms]
[INFO] MatrixAssemblyPI: 351.499 [ms]
[INFO] MatrixAssemblyPII: 172.333 [ms]
GAMG:  Solving for p, Initial residual = 0.04601031998779058, Final residual = 0.0002686451422776431, No Iterations 6
[INFO] SolveP: 1273.183 [ms]
time step continuity errors : sum local = 0.002542310180702584, global = 2.996212506674518e-05, cumulative = 0.000234348785831322
[INFO] postSolveP: 91.964 [ms]
smoothSolver:  Solving for nuTilda, Initial residual = 0.01706791549185776, Final residual = 0.001589731025701676, No Iterations 3
[INFO] TimeStep: 7097.847 [ms]
ExecutionTime = 308.93 s  ClockTime = 310 s

Time = 32

velocityDampingConstraint velocityDamping damped 0 (0%) of cells, with max limit 300
[INFO] MatrixAssemblyU: 2128.568 [ms]
smoothSolver:  Solving for Ux, Initial residual = 0.01094388247388258, Final residual = 0.001060374535588513, No Iterations 12
smoothSolver:  Solving for Uy, Initial residual = 0.05426084476897997, Final residual = 0.005394871075508482, No Iterations 12
smoothSolver:  Solving for Uz, Initial residual = 0.04985732639980359, Final residual = 0.004771263707773772, No Iterations 12
[INFO] MomentumPredictor: 1743.552 [ms]
[INFO] MatrixAssemblyPI: 350.772 [ms]
[INFO] MatrixAssemblyPII: 172.601 [ms]
GAMG:  Solving for p, Initial residual = 0.04760505648533699, Final residual = 0.000274690472284206, No Iterations 6
[INFO] SolveP: 1272.369 [ms]
time step continuity errors : sum local = 0.0026255072699147, global = 2.540182981984844e-05, cumulative = 0.0002597506156511704
[INFO] postSolveP: 92.44199999999999 [ms]
smoothSolver:  Solving for nuTilda, Initial residual = 0.02485300572742653, Final residual = 0.001488157005750047, No Iterations 3
[INFO] TimeStep: 7097.753 [ms]
ExecutionTime = 317.7 s  ClockTime = 319 s

Time = 33

velocityDampingConstraint velocityDamping damped 0 (0%) of cells, with max limit 300
[INFO] MatrixAssemblyU: 2127.852 [ms]
smoothSolver:  Solving for Ux, Initial residual = 0.01090369620665261, Final residual = 0.001066573441449969, No Iterations 12
smoothSolver:  Solving for Uy, Initial residual = 0.05660466339956523, Final residual = 0.00562320521929969, No Iterations 12
smoothSolver:  Solving for Uz, Initial residual = 0.05202444802681002, Final residual = 0.005046619750715635, No Iterations 12
[INFO] MomentumPredictor: 1739.498 [ms]
[INFO] MatrixAssemblyPI: 351.763 [ms]
[INFO] MatrixAssemblyPII: 172.422 [ms]
GAMG:  Solving for p, Initial residual = 0.04958767825523686, Final residual = 0.0002856141197939503, No Iterations 6
[INFO] SolveP: 1271.704 [ms]
time step continuity errors : sum local = 0.002753879947532909, global = 2.286754874708535e-05, cumulative = 0.0002826181643982558
[INFO] postSolveP: 92.276 [ms]
smoothSolver:  Solving for nuTilda, Initial residual = 0.01598483852252536, Final residual = 0.001480608697098705, No Iterations 3
[INFO] TimeStep: 7092.517 [ms]
ExecutionTime = 326.46 s  ClockTime = 328 s

Time = 34

velocityDampingConstraint velocityDamping damped 0 (0%) of cells, with max limit 300
[INFO] MatrixAssemblyU: 2124.255 [ms]
smoothSolver:  Solving for Ux, Initial residual = 0.0110290405407981, Final residual = 0.00107681917630734, No Iterations 12
smoothSolver:  Solving for Uy, Initial residual = 0.05916433425650028, Final residual = 0.005875970828752808, No Iterations 12
smoothSolver:  Solving for Uz, Initial residual = 0.05453359800837367, Final residual = 0.005341850559658075, No Iterations 12
[INFO] MomentumPredictor: 1745.514 [ms]
[INFO] MatrixAssemblyPI: 350.225 [ms]
[INFO] MatrixAssemblyPII: 172.114 [ms]
GAMG:  Solving for p, Initial residual = 0.05174997543088764, Final residual = 0.0005110395993960977, No Iterations 5
[INFO] SolveP: 1079.859 [ms]
time step continuity errors : sum local = 0.00497010393444349, global = 3.195764632060372e-05, cumulative = 0.0003145758107188595
[INFO] postSolveP: 92.622 [ms]
smoothSolver:  Solving for nuTilda, Initial residual = 0.02321041767031584, Final residual = 0.001394283384602067, No Iterations 3
[INFO] TimeStep: 6901.959 [ms]
ExecutionTime = 335.03 s  ClockTime = 337 s

Time = 35

velocityDampingConstraint velocityDamping damped 0 (0%) of cells, with max limit 300
[INFO] MatrixAssemblyU: 2120.826 [ms]
smoothSolver:  Solving for Ux, Initial residual = 0.01109892273495674, Final residual = 0.001090157853718104, No Iterations 12
smoothSolver:  Solving for Uy, Initial residual = 0.06167577273440152, Final residual = 0.006166178154114488, No Iterations 12
smoothSolver:  Solving for Uz, Initial residual = 0.05707398012498819, Final residual = 0.005607368214478644, No Iterations 12
[INFO] MomentumPredictor: 1742.868 [ms]
[INFO] MatrixAssemblyPI: 352.621 [ms]
[INFO] MatrixAssemblyPII: 172.747 [ms]
GAMG:  Solving for p, Initial residual = 0.05358476199419291, Final residual = 0.000521681976692459, No Iterations 5
[INFO] SolveP: 1078.042 [ms]
time step continuity errors : sum local = 0.005120120952796893, global = 3.713386889285125e-05, cumulative = 0.0003517096796117108
[INFO] postSolveP: 92.256 [ms]
smoothSolver:  Solving for nuTilda, Initial residual = 0.01502099689733343, Final residual = 0.001382946072993677, No Iterations 3
[INFO] TimeStep: 6894.517 [ms]
ExecutionTime = 343.59 s  ClockTime = 345 s

Time = 36

velocityDampingConstraint velocityDamping damped 0 (0%) of cells, with max limit 300
[INFO] MatrixAssemblyU: 2121.767 [ms]
smoothSolver:  Solving for Ux, Initial residual = 0.01137343946594388, Final residual = 0.001111497808219724, No Iterations 12
smoothSolver:  Solving for Uy, Initial residual = 0.06391071518759242, Final residual = 0.005531809447320956, No Iterations 13
smoothSolver:  Solving for Uz, Initial residual = 0.05972430806425712, Final residual = 0.005862429334941574, No Iterations 12
[INFO] MomentumPredictor: 1784.405 [ms]
[INFO] MatrixAssemblyPI: 352.498 [ms]
[INFO] MatrixAssemblyPII: 172.472 [ms]
GAMG:  Solving for p, Initial residual = 0.05509867597197556, Final residual = 0.0004878725059072981, No Iterations 5
[INFO] SolveP: 1076.306 [ms]
time step continuity errors : sum local = 0.00482094288422008, global = 3.811158311656164e-05, cumulative = 0.0003898212627282725
[INFO] postSolveP: 92.565 [ms]
smoothSolver:  Solving for nuTilda, Initial residual = 0.02179350536697925, Final residual = 0.001308074648951887, No Iterations 3
[INFO] TimeStep: 6935.333 [ms]
ExecutionTime = 352.19 s  ClockTime = 354 s

Time = 37

velocityDampingConstraint velocityDamping damped 0 (0%) of cells, with max limit 300
[INFO] MatrixAssemblyU: 2119.645 [ms]
smoothSolver:  Solving for Ux, Initial residual = 0.01158964948050743, Final residual = 0.001138072579281259, No Iterations 12
smoothSolver:  Solving for Uy, Initial residual = 0.06560094949457555, Final residual = 0.005765104989786627, No Iterations 13
smoothSolver:  Solving for Uz, Initial residual = 0.06237831880358593, Final residual = 0.006094722897305521, No Iterations 12
[INFO] MomentumPredictor: 1779.953 [ms]
[INFO] MatrixAssemblyPI: 351.43 [ms]
[INFO] MatrixAssemblyPII: 172.437 [ms]
GAMG:  Solving for p, Initial residual = 0.05690479888808203, Final residual = 0.0004770908339828151, No Iterations 5
[INFO] SolveP: 1077.279 [ms]
time step continuity errors : sum local = 0.00474803649495573, global = 3.904095047785135e-05, cumulative = 0.0004288622132061238
[INFO] postSolveP: 92.235 [ms]
smoothSolver:  Solving for nuTilda, Initial residual = 0.01419713184973467, Final residual = 0.001295763647071105, No Iterations 3
[INFO] TimeStep: 6927.103 [ms]
ExecutionTime = 360.78 s  ClockTime = 362 s

Time = 38

velocityDampingConstraint velocityDamping damped 0 (0%) of cells, with max limit 300
[INFO] MatrixAssemblyU: 2118.803 [ms]
smoothSolver:  Solving for Ux, Initial residual = 0.01190676921772582, Final residual = 0.001161388603212313, No Iterations 12
smoothSolver:  Solving for Uy, Initial residual = 0.06705164900041272, Final residual = 0.005943617267620415, No Iterations 13
smoothSolver:  Solving for Uz, Initial residual = 0.06515611009717973, Final residual = 0.006297576338850401, No Iterations 12
[INFO] MomentumPredictor: 1782.23 [ms]
[INFO] MatrixAssemblyPI: 351.152 [ms]
[INFO] MatrixAssemblyPII: 172.3 [ms]
GAMG:  Solving for p, Initial residual = 0.05773610275815327, Final residual = 0.0004913409739546961, No Iterations 5
[INFO] SolveP: 1078.104 [ms]
time step continuity errors : sum local = 0.004917369578470106, global = 3.060184748039642e-05, cumulative = 0.0004594640606865202
[INFO] postSolveP: 92.47199999999999 [ms]
smoothSolver:  Solving for nuTilda, Initial residual = 0.0205641209453771, Final residual = 0.001232267762033469, No Iterations 3
[INFO] TimeStep: 6927.864 [ms]
ExecutionTime = 369.37 s  ClockTime = 371 s

Time = 39

velocityDampingConstraint velocityDamping damped 0 (0%) of cells, with max limit 300
[INFO] MatrixAssemblyU: 2116.128 [ms]
smoothSolver:  Solving for Ux, Initial residual = 0.01200090794145132, Final residual = 0.001174340143445004, No Iterations 12
smoothSolver:  Solving for Uy, Initial residual = 0.06851962729524808, Final residual = 0.006105187991769013, No Iterations 13
smoothSolver:  Solving for Uz, Initial residual = 0.06765831891871549, Final residual = 0.006517802498822362, No Iterations 12
[INFO] MomentumPredictor: 1783.845 [ms]
[INFO] MatrixAssemblyPI: 351.314 [ms]
[INFO] MatrixAssemblyPII: 172.46 [ms]
GAMG:  Solving for p, Initial residual = 0.0579417467696746, Final residual = 0.0005161478504582667, No Iterations 5
[INFO] SolveP: 1076.304 [ms]
time step continuity errors : sum local = 0.005185583360594666, global = 1.987961031364971e-05, cumulative = 0.0004793436710001699
[INFO] postSolveP: 91.95 [ms]
smoothSolver:  Solving for nuTilda, Initial residual = 0.01353076485604726, Final residual = 0.001221696978424709, No Iterations 3
[INFO] TimeStep: 6924.685 [ms]
ExecutionTime = 377.95 s  ClockTime = 380 s

Time = 40

velocityDampingConstraint velocityDamping damped 0 (0%) of cells, with max limit 300
[INFO] MatrixAssemblyU: 2115.594 [ms]
smoothSolver:  Solving for Ux, Initial residual = 0.01213650631774226, Final residual = 0.001184335372090036, No Iterations 12
smoothSolver:  Solving for Uy, Initial residual = 0.0696277267426629, Final residual = 0.006259388588380025, No Iterations 13
smoothSolver:  Solving for Uz, Initial residual = 0.06938215002755004, Final residual = 0.006749126057590787, No Iterations 12
[INFO] MomentumPredictor: 1783.956 [ms]
[INFO] MatrixAssemblyPI: 350.973 [ms]
[INFO] MatrixAssemblyPII: 172.262 [ms]
GAMG:  Solving for p, Initial residual = 0.05806189939698423, Final residual = 0.0005245061992849628, No Iterations 5
[INFO] SolveP: 1078.473 [ms]
time step continuity errors : sum local = 0.0052768512943347, global = 6.969021683016358e-06, cumulative = 0.0004863126926831862
[INFO] postSolveP: 92.158 [ms]
smoothSolver:  Solving for nuTilda, Initial residual = 0.01945930916429425, Final residual = 0.001168246747393751, No Iterations 3
[INFO] TimeStep: 6926.132 [ms]
ExecutionTime = 386.54 s  ClockTime = 388 s

Time = 41

velocityDampingConstraint velocityDamping damped 0 (0%) of cells, with max limit 300
[INFO] MatrixAssemblyU: 2114.233 [ms]
smoothSolver:  Solving for Ux, Initial residual = 0.01206039435962589, Final residual = 0.00119261611498766, No Iterations 12
smoothSolver:  Solving for Uy, Initial residual = 0.0702059137424379, Final residual = 0.006404776355592718, No Iterations 13
smoothSolver:  Solving for Uz, Initial residual = 0.07043350871798146, Final residual = 0.006937326340439204, No Iterations 12
[INFO] MomentumPredictor: 1785.047 [ms]
[INFO] MatrixAssemblyPI: 350.776 [ms]
[INFO] MatrixAssemblyPII: 172.792 [ms]
GAMG:  Solving for p, Initial residual = 0.05750461914252968, Final residual = 0.0004870732221816316, No Iterations 5
[INFO] SolveP: 1077.918 [ms]
time step continuity errors : sum local = 0.004901502511367312, global = 5.949540184312439e-07, cumulative = 0.0004869076467016175
[INFO] postSolveP: 91.89700000000001 [ms]
smoothSolver:  Solving for nuTilda, Initial residual = 0.01294495610156655, Final residual = 0.001159437333302648, No Iterations 3
[INFO] TimeStep: 6924.492 [ms]
ExecutionTime = 395.12 s  ClockTime = 397 s

Time = 42

velocityDampingConstraint velocityDamping damped 0 (0%) of cells, with max limit 300
[INFO] MatrixAssemblyU: 2112.157 [ms]
smoothSolver:  Solving for Ux, Initial residual = 0.01210108353507307, Final residual = 0.001199386142387752, No Iterations 12
smoothSolver:  Solving for Uy, Initial residual = 0.07068474119660252, Final residual = 0.006588916261309749, No Iterations 13
smoothSolver:  Solving for Uz, Initial residual = 0.07094160699660039, Final residual = 0.006036263556056147, No Iterations 13
[INFO] MomentumPredictor: 1833.994 [ms]
[INFO] MatrixAssemblyPI: 350.318 [ms]
[INFO] MatrixAssemblyPII: 172.419 [ms]
GAMG:  Solving for p, Initial residual = 0.05717415019060587, Final residual = 0.0004604329696613423, No Iterations 5
[INFO] SolveP: 1079.148 [ms]
time step continuity errors : sum local = 0.004624937820100464, global = -1.023250990550218e-05, cumulative = 0.0004766751367961153
[INFO] postSolveP: 92.053 [ms]
smoothSolver:  Solving for nuTilda, Initial residual = 0.01844964471246736, Final residual = 0.001112793014185053, No Iterations 3
[INFO] TimeStep: 6972.884 [ms]
ExecutionTime = 403.74 s  ClockTime = 406 s

Time = 43

velocityDampingConstraint velocityDamping damped 0 (0%) of cells, with max limit 300
[INFO] MatrixAssemblyU: 2110.945 [ms]
smoothSolver:  Solving for Ux, Initial residual = 0.01200834837548708, Final residual = 0.001027106212272879, No Iterations 13
smoothSolver:  Solving for Uy, Initial residual = 0.07143497200022859, Final residual = 0.006808189543453239, No Iterations 13
smoothSolver:  Solving for Uz, Initial residual = 0.07064110891846076, Final residual = 0.006124868491086152, No Iterations 13
[INFO] MomentumPredictor: 1863.477 [ms]
[INFO] MatrixAssemblyPI: 351.57 [ms]
[INFO] MatrixAssemblyPII: 172.393 [ms]
GAMG:  Solving for p, Initial residual = 0.05653756045729193, Final residual = 0.0004660952323829457, No Iterations 5
[INFO] SolveP: 1078.386 [ms]
time step continuity errors : sum local = 0.004660986968907217, global = -1.453342160990369e-05, cumulative = 0.0004621417151862116
[INFO] postSolveP: 92.209 [ms]
smoothSolver:  Solving for nuTilda, Initial residual = 0.01236174923409031, Final residual = 0.001103227738042393, No Iterations 3
[INFO] TimeStep: 6999.51 [ms]
ExecutionTime = 412.4 s  ClockTime = 414 s

Time = 44

velocityDampingConstraint velocityDamping damped 0 (0%) of cells, with max limit 300
[INFO] MatrixAssemblyU: 2108.9 [ms]
smoothSolver:  Solving for Ux, Initial residual = 0.01202827997200534, Final residual = 0.001035393753376235, No Iterations 13
smoothSolver:  Solving for Uy, Initial residual = 0.07191162938126612, Final residual = 0.007011310065804329, No Iterations 13
smoothSolver:  Solving for Uz, Initial residual = 0.07010375102705266, Final residual = 0.006207675779329124, No Iterations 13
[INFO] MomentumPredictor: 1862.233 [ms]
[INFO] MatrixAssemblyPI: 350.709 [ms]
[INFO] MatrixAssemblyPII: 172.648 [ms]
GAMG:  Solving for p, Initial residual = 0.05602045125030372, Final residual = 0.0004750584997484923, No Iterations 5
[INFO] SolveP: 1076.739 [ms]
time step continuity errors : sum local = 0.004704451423880227, global = -1.486116812514327e-05, cumulative = 0.0004472805470610683
[INFO] postSolveP: 92.613 [ms]
smoothSolver:  Solving for nuTilda, Initial residual = 0.01750982298288955, Final residual = 0.001060825567963411, No Iterations 3
[INFO] TimeStep: 6996.546 [ms]
ExecutionTime = 421.05 s  ClockTime = 423 s

Time = 45

velocityDampingConstraint velocityDamping damped 0 (0%) of cells, with max limit 300
[INFO] MatrixAssemblyU: 2107.942 [ms]
smoothSolver:  Solving for Ux, Initial residual = 0.0118961085965134, Final residual = 0.001043973355485224, No Iterations 13
smoothSolver:  Solving for Uy, Initial residual = 0.07202189601313208, Final residual = 0.007141655549609727, No Iterations 13
smoothSolver:  Solving for Uz, Initial residual = 0.06930109301613743, Final residual = 0.006276170651264198, No Iterations 13
[INFO] MomentumPredictor: 1858.708 [ms]
[INFO] MatrixAssemblyPI: 351.832 [ms]
[INFO] MatrixAssemblyPII: 172.565 [ms]
GAMG:  Solving for p, Initial residual = 0.0555863040546511, Final residual = 0.0004813952792781379, No Iterations 5
[INFO] SolveP: 1077.235 [ms]
time step continuity errors : sum local = 0.004700561275916754, global = -2.877130002285482e-06, cumulative = 0.0004444034170587828
[INFO] postSolveP: 92.31699999999999 [ms]
smoothSolver:  Solving for nuTilda, Initial residual = 0.01180247621919584, Final residual = 0.001049626592010108, No Iterations 3
[INFO] TimeStep: 6989.356 [ms]
ExecutionTime = 429.69 s  ClockTime = 432 s

Time = 46

velocityDampingConstraint velocityDamping damped 0 (0%) of cells, with max limit 300
[INFO] MatrixAssemblyU: 2109.194 [ms]
smoothSolver:  Solving for Ux, Initial residual = 0.01177626773575224, Final residual = 0.001048344601127295, No Iterations 13
smoothSolver:  Solving for Uy, Initial residual = 0.07199744570247422, Final residual = 0.006159851062400474, No Iterations 14
smoothSolver:  Solving for Uz, Initial residual = 0.06809100940694437, Final residual = 0.006331782487363368, No Iterations 13
[INFO] MomentumPredictor: 1903.029 [ms]
[INFO] MatrixAssemblyPI: 351.154 [ms]
[INFO] MatrixAssemblyPII: 172.371 [ms]
GAMG:  Solving for p, Initial residual = 0.05491329575706973, Final residual = 0.00046702217120116, No Iterations 5
[INFO] SolveP: 1080.297 [ms]
time step continuity errors : sum local = 0.004512273138042305, global = 1.213263372207414e-05, cumulative = 0.000456536050780857
[INFO] postSolveP: 92.556 [ms]
smoothSolver:  Solving for nuTilda, Initial residual = 0.01662714178091641, Final residual = 0.001011784170145353, No Iterations 3
[INFO] TimeStep: 7041.195 [ms]
ExecutionTime = 438.38 s  ClockTime = 440 s

Time = 47

velocityDampingConstraint velocityDamping damped 0 (0%) of cells, with max limit 300
[INFO] MatrixAssemblyU: 2107.899 [ms]
smoothSolver:  Solving for Ux, Initial residual = 0.01153979671399033, Final residual = 0.001053968840184109, No Iterations 13
smoothSolver:  Solving for Uy, Initial residual = 0.0716845549569704, Final residual = 0.006161436103891789, No Iterations 14
smoothSolver:  Solving for Uz, Initial residual = 0.06680261610817655, Final residual = 0.006377201759377104, No Iterations 13
[INFO] MomentumPredictor: 1899.043 [ms]
[INFO] MatrixAssemblyPI: 352.248 [ms]
[INFO] MatrixAssemblyPII: 172.454 [ms]
GAMG:  Solving for p, Initial residual = 0.0541876581597226, Final residual = 0.0004582512707195649, No Iterations 5
[INFO] SolveP: 1078.368 [ms]
time step continuity errors : sum local = 0.004397495384207093, global = 2.858659009840277e-05, cumulative = 0.0004851226408792597
[INFO] postSolveP: 91.95999999999999 [ms]
smoothSolver:  Solving for nuTilda, Initial residual = 0.01127780646124133, Final residual = 0.001001848923640578, No Iterations 3
[INFO] TimeStep: 7031.325 [ms]
ExecutionTime = 447.05 s  ClockTime = 449 s

Time = 48

velocityDampingConstraint velocityDamping damped 0 (0%) of cells, with max limit 300
[INFO] MatrixAssemblyU: 2107.894 [ms]
smoothSolver:  Solving for Ux, Initial residual = 0.01150125176240984, Final residual = 0.001059520416646685, No Iterations 13
smoothSolver:  Solving for Uy, Initial residual = 0.07136785271101152, Final residual = 0.006155301962242888, No Iterations 14
smoothSolver:  Solving for Uz, Initial residual = 0.06566146921251446, Final residual = 0.00637273539043965, No Iterations 13
[INFO] MomentumPredictor: 1903.183 [ms]
[INFO] MatrixAssemblyPI: 351.059 [ms]
[INFO] MatrixAssemblyPII: 172.245 [ms]
GAMG:  Solving for p, Initial residual = 0.05338485475954509, Final residual = 0.0004579010295086436, No Iterations 5
[INFO] SolveP: 1078.711 [ms]
time step continuity errors : sum local = 0.004363776250927706, global = 2.897986615295344e-05, cumulative = 0.0005141025070322131
[INFO] postSolveP: 92.315 [ms]
smoothSolver:  Solving for nuTilda, Initial residual = 0.01584125099234088, Final residual = 0.0009704976133516183, No Iterations 3
[INFO] TimeStep: 7034.547 [ms]
ExecutionTime = 455.74 s  ClockTime = 458 s

Time = 49

velocityDampingConstraint velocityDamping damped 0 (0%) of cells, with max limit 300
[INFO] MatrixAssemblyU: 2105.727 [ms]
smoothSolver:  Solving for Ux, Initial residual = 0.01140320458397324, Final residual = 0.001063979221009453, No Iterations 13
smoothSolver:  Solving for Uy, Initial residual = 0.07078273760635437, Final residual = 0.006131740263515071, No Iterations 14
smoothSolver:  Solving for Uz, Initial residual = 0.06467322649958895, Final residual = 0.006349812566300921, No Iterations 13
[INFO] MomentumPredictor: 1907.299 [ms]
[INFO] MatrixAssemblyPI: 351.462 [ms]
[INFO] MatrixAssemblyPII: 172.582 [ms]
GAMG:  Solving for p, Initial residual = 0.05276380015813741, Final residual = 0.000472335697049202, No Iterations 5
[INFO] SolveP: 1078.208 [ms]
time step continuity errors : sum local = 0.004472806028791105, global = 2.067158923523069e-05, cumulative = 0.0005347740962674438
[INFO] postSolveP: 92.19499999999999 [ms]
smoothSolver:  Solving for nuTilda, Initial residual = 0.01083949560316676, Final residual = 0.000964056967555263, No Iterations 3
[INFO] TimeStep: 7035.975 [ms]
ExecutionTime = 464.43 s  ClockTime = 467 s

Time = 50

velocityDampingConstraint velocityDamping damped 0 (0%) of cells, with max limit 300
[INFO] MatrixAssemblyU: 2103.544 [ms]
smoothSolver:  Solving for Ux, Initial residual = 0.01141177875237588, Final residual = 0.001066413053595642, No Iterations 13
smoothSolver:  Solving for Uy, Initial residual = 0.0698722828641337, Final residual = 0.006066507500322657, No Iterations 14
smoothSolver:  Solving for Uz, Initial residual = 0.06376493411608125, Final residual = 0.006315410112768964, No Iterations 13
[INFO] MomentumPredictor: 1901.776 [ms]
[INFO] MatrixAssemblyPI: 351.352 [ms]
[INFO] MatrixAssemblyPII: 172.994 [ms]
GAMG:  Solving for p, Initial residual = 0.05260699010891207, Final residual = 0.000485165842758874, No Iterations 5
[INFO] SolveP: 1079.594 [ms]
time step continuity errors : sum local = 0.004559067094677642, global = 6.790781719079739e-06, cumulative = 0.0005415648779865236
[INFO] postSolveP: 92.26900000000001 [ms]
smoothSolver:  Solving for nuTilda, Initial residual = 0.01515841871908438, Final residual = 0.0009381911299717991, No Iterations 3
[INFO] TimeStep: 7030.057 [ms]
ExecutionTime = 473.1 s  ClockTime = 475 s

End

Finalising parallel run
