/*---------------------------------------------------------------------------*\
| =========                 |                                                 |
| \\      /  F ield         | OpenFOAM: The Open Source CFD Toolbox           |
|  \\    /   O peration     | Version:  2306                                  |
|   \\  /    A nd           | Website:  www.openfoam.com                      |
|    \\/     M anipulation  |                                                 |
\*---------------------------------------------------------------------------*/
Build  : a6e826bd55-20230630 OPENFOAM=2306 version=v2306
Arch   : "LSB;label=32;scalar=64"
Exec   : pimpleFoam -parallel -case /home/greole/data/code/exasim_project/micro_benchmarks/WindsorBody/workspace/942131d4067cb2d01a467cf18de5489c/case
Date   : Aug 30 2023
Time   : 21:06:20
Host   : nla-gpu2.ianm.kit.edu
PID    : 86751
I/O    : uncollated
Case   : /home/greole/data/code/exasim_project/micro_benchmarks/WindsorBody/workspace/942131d4067cb2d01a467cf18de5489c/case
nProcs : 32
Hosts  :
(
    (nla-gpu2.ianm.kit.edu 32)
)
Pstream initialized with:
    floatTransfer      : false
    nProcsSimpleSum    : 0
    nonBlockingExchange: 0 (tuning: 0)
    exchange algorithm : -1
    commsType          : nonBlocking
    polling iterations : 0
trapFpe: Floating point exception trapping enabled (FOAM_SIGFPE).
fileModificationChecking : Monitoring run-time modified files using timeStampMaster (fileModificationSkew 5, maxFileModificationPolls 20)
allowSystemOperations : Allowing user-supplied system call operations

// * * * * * * * * * * * * * * * * * * * * * * * * * * * * * * * * * * * * * //
Create time

--> FOAM Warning : 
    From void* Foam::dlLibraryTable::openLibrary(const Foam::fileName&, bool)
    in file db/dynamicLibrary/dlLibraryTable/dlLibraryTable.C at line 188
    Could not load "libpetscFoam.so"
libpetscFoam.so: cannot open shared object file: No such file or directory
Create mesh for time = 0


PIMPLE: max iterations = 30
    field p	: relTol 0.1, tolerance 0
    field U	: relTol 0.001, tolerance 0

Reading field p

Reading field U

Reading/calculating face flux field phi

Selecting incompressible transport model Newtonian
Selecting turbulence model type LES
Selecting LES turbulence model kOmegaSSTDDES
Selecting LES delta type maxDeltaxyz
Selecting patchDistMethod meshWave
LES
{
    LESModel        kOmegaSSTDDES;
    delta           maxDeltaxyz;
    turbulence      on;
    printCoeffs     on;
    alphaK1         0.85;
    alphaK2         1;
    alphaOmega1     0.5;
    alphaOmega2     0.856;
    gamma1          0.5555555555555556;
    gamma2          0.44;
    beta1           0.075;
    beta2           0.0828;
    betaStar        0.09;
    a1              0.31;
    b1              1;
    c1              10;
    F3              false;
    decayControl    false;
    kInf            0;
    omegaInf        0;
    useSigma        false;
    kappa           0.41;
    CDESkom         0.82;
    CDESkeps        0.6;
    Ctrans          60;
    Cd1             20;
    Cd2             3;
}

No MRF models present

Creating finite volume options from "system/fvOptions"

Selecting finite volume options type velocityDampingConstraint
    Source: velocityDamping
    - selecting all cells
    - selected 6307136 cell(s) with volume 27.82583051608611
Courant Number mean: 0.004260848526933742 max: 6.125474307755766

Starting time loop

--> FOAM Warning : 
    From bool Foam::functionObjectList::read()
    in file db/functionObjects/functionObjectList/functionObjectList.C at line 1035
    Reading "system/controlDict" at line 2 to 19
    Entry 'lref' is not a dictionary
--> FOAM Warning : 
    From bool Foam::functionObjectList::read()
    in file db/functionObjects/functionObjectList/functionObjectList.C at line 1035
    Reading "system/controlDict" at line 2 to 19
    Entry 'Aref' is not a dictionary
--> FOAM Warning : 
    From bool Foam::functionObjectList::read()
    in file db/functionObjects/functionObjectList/functionObjectList.C at line 1035
    Reading "system/controlDict" at line 2 to 19
    Entry 'yawAngle' is not a dictionary
--> FOAM Warning : 
    From bool Foam::functionObjectList::read()
    in file db/functionObjects/functionObjectList/functionObjectList.C at line 1035
    Reading "system/controlDict" at line 2 to 19
    Entry 'lDomain' is not a dictionary
--> FOAM Warning : 
    From bool Foam::functionObjectList::read()
    in file db/functionObjects/functionObjectList/functionObjectList.C at line 1035
    Reading "system/controlDict" at line 2 to 19
    Entry 'bDomain' is not a dictionary
--> FOAM Warning : 
    From bool Foam::functionObjectList::read()
    in file db/functionObjects/functionObjectList/functionObjectList.C at line 1035
    Reading "system/controlDict" at line 2 to 19
    Entry 'hDomain' is not a dictionary
--> FOAM Warning : 
    From bool Foam::functionObjectList::read()
    in file db/functionObjects/functionObjectList/functionObjectList.C at line 1035
    Reading "system/controlDict" at line 2 to 19
    Entry 'xCenter' is not a dictionary
--> FOAM Warning : 
    From bool Foam::functionObjectList::read()
    in file db/functionObjects/functionObjectList/functionObjectList.C at line 1035
    Reading "system/controlDict" at line 2 to 19
    Entry 'yCenter' is not a dictionary
--> FOAM Warning : 
    From bool Foam::functionObjectList::read()
    in file db/functionObjects/functionObjectList/functionObjectList.C at line 1035
    Reading "system/controlDict" at line 2 to 19
    Entry 'zCenter' is not a dictionary
--> FOAM Warning : 
    From bool Foam::functionObjectList::read()
    in file db/functionObjects/functionObjectList/functionObjectList.C at line 1035
    Reading "system/controlDict" at line 2 to 19
    Entry 'inletPatch' is not a dictionary
--> FOAM Warning : 
    From bool Foam::functionObjectList::read()
    in file db/functionObjects/functionObjectList/functionObjectList.C at line 1035
    Reading "system/controlDict" at line 2 to 19
    Entry 'outletPatch' is not a dictionary
--> FOAM Warning : 
    From bool Foam::functionObjectList::read()
    in file db/functionObjects/functionObjectList/functionObjectList.C at line 1035
    Reading "system/controlDict" at line 2 to 19
    Entry 'wallPatches' is not a dictionary
--> FOAM Warning : 
    From bool Foam::functionObjectList::read()
    in file db/functionObjects/functionObjectList/functionObjectList.C at line 1035
    Reading "system/controlDict" at line 2 to 19
    Entry 'forcesWallPatches' is not a dictionary
--> FOAM Warning : 
    From bool Foam::functionObjectList::read()
    in file db/functionObjects/functionObjectList/functionObjectList.C at line 1035
    Reading "system/controlDict" at line 2 to 19
    Entry 'symmPatches' is not a dictionary
--> FOAM Warning : 
    From bool Foam::functionObjectList::read()
    in file db/functionObjects/functionObjectList/functionObjectList.C at line 1035
    Reading "system/controlDict" at line 2 to 19
    Entry 'Uinf' is not a dictionary
--> FOAM Warning : 
    From bool Foam::functionObjectList::read()
    in file db/functionObjects/functionObjectList/functionObjectList.C at line 1035
    Reading "system/controlDict" at line 2 to 19
    Entry 'UinfMag' is not a dictionary
--> FOAM Warning : 
    From bool Foam::functionObjectList::read()
    in file db/functionObjects/functionObjectList/functionObjectList.C at line 1035
    Reading "system/controlDict" at line 2 to 19
    Entry 'nu' is not a dictionary
--> FOAM Warning : 
    From bool Foam::functionObjectList::read()
    in file db/functionObjects/functionObjectList/functionObjectList.C at line 1035
    Reading "system/controlDict" at line 2 to 19
    Entry 'pref' is not a dictionary
--> FOAM Warning : 
    From bool Foam::functionObjectList::read()
    in file db/functionObjects/functionObjectList/functionObjectList.C at line 1035
    Reading "system/controlDict" at line 2 to 19
    Entry 'viscRatio' is not a dictionary
--> FOAM Warning : 
    From bool Foam::functionObjectList::read()
    in file db/functionObjects/functionObjectList/functionObjectList.C at line 1035
    Reading "system/controlDict" at line 2 to 19
    Entry 'Tu' is not a dictionary
--> FOAM Warning : 
    From bool Foam::functionObjectList::read()
    in file db/functionObjects/functionObjectList/functionObjectList.C at line 1035
    Reading "system/controlDict" at line 2 to 19
    Entry 'LESturbModel' is not a dictionary
--> FOAM Warning : 
    From bool Foam::functionObjectList::read()
    in file db/functionObjects/functionObjectList/functionObjectList.C at line 1035
    Reading "system/controlDict" at line 2 to 19
    Entry 'RASturbModel' is not a dictionary
--> FOAM Warning : 
    From bool Foam::functionObjectList::read()
    in file db/functionObjects/functionObjectList/functionObjectList.C at line 1035
    Reading "system/controlDict" at line 2 to 19
    Entry 'deltaTurb' is not a dictionary
--> FOAM Warning : 
    From bool Foam::functionObjectList::read()
    in file db/functionObjects/functionObjectList/functionObjectList.C at line 1035
    Reading "system/controlDict" at line 2 to 19
    Entry 'dt' is not a dictionary
--> FOAM Warning : 
    From bool Foam::functionObjectList::read()
    in file db/functionObjects/functionObjectList/functionObjectList.C at line 1035
    Reading "system/controlDict" at line 2 to 19
    Entry 'tAvg' is not a dictionary
--> FOAM Warning : 
    From bool Foam::functionObjectList::read()
    in file db/functionObjects/functionObjectList/functionObjectList.C at line 1035
    Reading "system/controlDict" at line 2 to 19
    Entry 'tEnd' is not a dictionary
--> FOAM Warning : 
    From bool Foam::functionObjectList::read()
    in file db/functionObjects/functionObjectList/functionObjectList.C at line 1035
    Reading "system/controlDict" at line 2 to 19
    Entry 'writeInterval_' is not a dictionary
--> FOAM Warning : 
    From bool Foam::functionObjectList::read()
    in file db/functionObjects/functionObjectList/functionObjectList.C at line 1035
    Reading "system/controlDict" at line 2 to 19
    Entry 'nCores' is not a dictionary
--> FOAM Warning : 
    From bool Foam::functionObjectList::read()
    in file db/functionObjects/functionObjectList/functionObjectList.C at line 1035
    Reading "system/controlDict" at line 2 to 19
    Entry 'interpScheme' is not a dictionary
--> FOAM Warning : 
    From bool Foam::functionObjectList::read()
    in file db/functionObjects/functionObjectList/functionObjectList.C at line 1035
    Reading "system/controlDict" at line 2 to 19
    Entry 'probeField' is not a dictionary
wallShearStress wallShearStress:
    processing wall patches: 
        Windsor_Body
        CFDWT_Floor
        Windsor_Pins
        Windsor_Base

pressure calc_cp:
    Operating mode: staticCoeff
    Not including hydrostatic effects

forceCoeffs forceCoeffsAll:
    rho: rhoInf
    Freestream density (rhoInf) set to 1
    Not including porosity effects
    magUInf: 40
    lRef   : 0.6375
    Aref   : 0.1124
    rhoInf : 1
    Selecting all coefficients
    - Drag force: Cd
    - Drag force front: Cd(f)
    - Drag force rear: Cd(r)
    - Lift force: Cl
    - Lift force front: Cl(f)
    - Lift force rear: Cl(r)
    - Pitch moment: CmPitch
    - Roll moment: CmRoll
    - Yaw moment: CmYaw
    - Side force: Cs
    - Side force front: Cs(f)
    - Side force rear: Cs(r)


forceCoeffs dragCoeffBase:
    rho: rhoInf
    Freestream density (rhoInf) set to 1
    Not including porosity effects
    magUInf: 40
    lRef   : 0.6375
    Aref   : 0.1124
    rhoInf : 1
    Selecting coefficients:
    - Drag force: Cd


Courant Number mean: 0.004260848526933742 max: 6.125474307755766
Time = 5e-06

PIMPLE: iteration 1
velocityDampingConstraint velocityDamping damped 0 (0%) of cells, with max limit 300
[INFO] MatrixAssemblyU: 779.223 [ms]
smoothSolver:  Solving for Ux, Initial residual = 0.999999999029768, Final residual = 0.004520605051813992, No Iterations 1
smoothSolver:  Solving for Uy, Initial residual = 1, Final residual = 0.01660097520213804, No Iterations 1
smoothSolver:  Solving for Uz, Initial residual = 1, Final residual = 0.01396251404186105, No Iterations 1
[INFO] MomentumPredictor: 97.711 [ms]
[INFO] MatrixAssemblyPI: 77.23999999999999 [ms]
[INFO] MatrixAssemblyPII: 48.163 [ms]
DICPCG:  Solving for p, Initial residual = 1, Final residual = 0.009786142333224696, No Iterations 558
[INFO] SolveP: 5136.792 [ms]
time step continuity errors : sum local = 1.757136554431869e-08, global = -4.450565255223319e-11, cumulative = -4.450565255223319e-11
[INFO] PIMPLEStep: 6172.837 [ms]
PIMPLE: iteration 2
velocityDampingConstraint velocityDamping damped 0 (0%) of cells, with max limit 300
[INFO] MatrixAssemblyU: 755.8150000000001 [ms]
smoothSolver:  Solving for Ux, Initial residual = 0.08462213605501652, Final residual = 0.0004632057246864168, No Iterations 1
smoothSolver:  Solving for Uy, Initial residual = 0.1244414293841634, Final residual = 0.0009731122476539651, No Iterations 1
smoothSolver:  Solving for Uz, Initial residual = 0.05507681286852594, Final residual = 0.0003191579645557095, No Iterations 1
[INFO] MomentumPredictor: 95.096 [ms]
[INFO] MatrixAssemblyPI: 70.605 [ms]
[INFO] MatrixAssemblyPII: 48.88 [ms]
DICPCG:  Solving for p, Initial residual = 0.4468075952927371, Final residual = 0.004409337865790939, No Iterations 521
[INFO] SolveP: 4772.635 [ms]
time step continuity errors : sum local = 2.193769076418469e-08, global = -2.20334726419267e-10, cumulative = -2.648403789715002e-10
[INFO] PIMPLEStep: 5783.294 [ms]
PIMPLE: iteration 3
velocityDampingConstraint velocityDamping damped 0 (0%) of cells, with max limit 300
[INFO] MatrixAssemblyU: 752.475 [ms]
smoothSolver:  Solving for Ux, Initial residual = 0.03808901384321692, Final residual = 0.0002095760399318651, No Iterations 1
smoothSolver:  Solving for Uy, Initial residual = 0.05779364049375808, Final residual = 0.0004552010497409086, No Iterations 1
smoothSolver:  Solving for Uz, Initial residual = 0.02460374073078039, Final residual = 0.0001428083395273367, No Iterations 1
[INFO] MomentumPredictor: 95.06399999999999 [ms]
[INFO] MatrixAssemblyPI: 70.791 [ms]
[INFO] MatrixAssemblyPII: 48.93 [ms]
DICPCG:  Solving for p, Initial residual = 0.2754497409856468, Final residual = 0.002638775125370306, No Iterations 485
[INFO] SolveP: 4452.465 [ms]
time step continuity errors : sum local = 1.792472118740272e-08, global = -5.399764650868009e-11, cumulative = -3.188380254801804e-10
[INFO] PIMPLEStep: 5453.356 [ms]
PIMPLE: iteration 4
velocityDampingConstraint velocityDamping damped 0 (0%) of cells, with max limit 300
[INFO] MatrixAssemblyU: 752.29 [ms]
smoothSolver:  Solving for Ux, Initial residual = 0.01765407858125356, Final residual = 9.652184381438499e-05, No Iterations 1
smoothSolver:  Solving for Uy, Initial residual = 0.02613816560908047, Final residual = 0.0002048011703780665, No Iterations 1
smoothSolver:  Solving for Uz, Initial residual = 0.01091356596131213, Final residual = 6.257911374095201e-05, No Iterations 1
[INFO] MomentumPredictor: 95.688 [ms]
[INFO] MatrixAssemblyPI: 70.61499999999999 [ms]
[INFO] MatrixAssemblyPII: 49.094 [ms]
DICPCG:  Solving for p, Initial residual = 0.1666890255252569, Final residual = 0.001630695495673653, No Iterations 463
[INFO] SolveP: 4242.323 [ms]
time step continuity errors : sum local = 1.292001981499408e-08, global = -2.977951720088375e-11, cumulative = -3.486175426810641e-10
[INFO] PIMPLEStep: 5241.191 [ms]
PIMPLE: iteration 5
velocityDampingConstraint velocityDamping damped 0 (0%) of cells, with max limit 300
[INFO] MatrixAssemblyU: 749.816 [ms]
smoothSolver:  Solving for Ux, Initial residual = 0.007509913897472817, Final residual = 4.028591928599011e-05, No Iterations 1
smoothSolver:  Solving for Uy, Initial residual = 0.01081780617178497, Final residual = 8.315469204212392e-05, No Iterations 1
smoothSolver:  Solving for Uz, Initial residual = 0.004497849014246201, Final residual = 2.517163853438745e-05, No Iterations 1
[INFO] MomentumPredictor: 95.59 [ms]
[INFO] MatrixAssemblyPI: 70.63500000000001 [ms]
[INFO] MatrixAssemblyPII: 48.893 [ms]
DICPCG:  Solving for p, Initial residual = 0.09866041276537645, Final residual = 0.0009778677085468259, No Iterations 237
[INFO] SolveP: 2188.206 [ms]
time step continuity errors : sum local = 8.390308884728423e-09, global = -5.055987654383547e-10, cumulative = -8.542163081194188e-10
[INFO] PIMPLEStep: 3186.856 [ms]
PIMPLE: iteration 6
velocityDampingConstraint velocityDamping damped 0 (0%) of cells, with max limit 300
[INFO] MatrixAssemblyU: 751.668 [ms]
smoothSolver:  Solving for Ux, Initial residual = 0.002802487034347549, Final residual = 1.450341627295067e-05, No Iterations 1
smoothSolver:  Solving for Uy, Initial residual = 0.003891373613829262, Final residual = 2.877525503734319e-05, No Iterations 1
smoothSolver:  Solving for Uz, Initial residual = 0.001631544557438297, Final residual = 8.749191281908111e-06, No Iterations 1
[INFO] MomentumPredictor: 95.702 [ms]
[INFO] MatrixAssemblyPI: 70.399 [ms]
[INFO] MatrixAssemblyPII: 49.237 [ms]
DICPCG:  Solving for p, Initial residual = 0.05820480685526573, Final residual = 0.0005788690256535702, No Iterations 131
[INFO] SolveP: 1205.606 [ms]
time step continuity errors : sum local = 5.137405951823447e-09, global = -3.487018511434207e-10, cumulative = -1.202918159262839e-09
[INFO] PIMPLEStep: 2203.808 [ms]
PIMPLE: iteration 7
velocityDampingConstraint velocityDamping damped 0 (0%) of cells, with max limit 300
[INFO] MatrixAssemblyU: 749.198 [ms]
smoothSolver:  Solving for Ux, Initial residual = 0.0008270344966457377, Final residual = 4.108221072678075e-06, No Iterations 1
smoothSolver:  Solving for Uy, Initial residual = 0.001105427002791271, Final residual = 7.621498721881354e-06, No Iterations 1
smoothSolver:  Solving for Uz, Initial residual = 0.0004743628405214209, Final residual = 2.374155246482716e-06, No Iterations 1
[INFO] MomentumPredictor: 94.86799999999999 [ms]
[INFO] MatrixAssemblyPI: 70.84 [ms]
[INFO] MatrixAssemblyPII: 49.044 [ms]
DICPCG:  Solving for p, Initial residual = 0.03427184786642596, Final residual = 0.0003426464905770327, No Iterations 205
[INFO] SolveP: 1892.161 [ms]
time step continuity errors : sum local = 3.104918334881439e-09, global = -3.421430167792462e-10, cumulative = -1.545061176042086e-09
[INFO] PIMPLEStep: 2888.083 [ms]
PIMPLE: iteration 8
velocityDampingConstraint velocityDamping damped 0 (0%) of cells, with max limit 300
[INFO] MatrixAssemblyU: 747.967 [ms]
smoothSolver:  Solving for Ux, Initial residual = 0.0001562045295989161, Final residual = 7.756267932575457e-07, No Iterations 1
smoothSolver:  Solving for Uy, Initial residual = 0.0002055757647142754, Final residual = 1.392792894145727e-06, No Iterations 1
smoothSolver:  Solving for Uz, Initial residual = 9.566637849008257e-05, Final residual = 4.983027853760156e-07, No Iterations 1
[INFO] MomentumPredictor: 95.003 [ms]
[INFO] MatrixAssemblyPI: 70.63800000000001 [ms]
[INFO] MatrixAssemblyPII: 49.266 [ms]
DICPCG:  Solving for p, Initial residual = 0.02047004722431714, Final residual = 0.0002031411986732631, No Iterations 264
[INFO] SolveP: 2424.156 [ms]
time step continuity errors : sum local = 1.864439446774421e-09, global = -2.310027409215417e-10, cumulative = -1.776063916963627e-09
[INFO] PIMPLEStep: 3418.159 [ms]
PIMPLE: iteration 9
velocityDampingConstraint velocityDamping damped 0 (0%) of cells, with max limit 300
[INFO] MatrixAssemblyU: 746.168 [ms]
smoothSolver:  Solving for Ux, Initial residual = 7.196868112491633e-05, Final residual = 5.986784038617737e-07, No Iterations 1
smoothSolver:  Solving for Uy, Initial residual = 0.0001454300415305207, Final residual = 1.40186800677148e-06, No Iterations 1
smoothSolver:  Solving for Uz, Initial residual = 5.341317245080702e-05, Final residual = 4.386332689446002e-07, No Iterations 1
[INFO] MomentumPredictor: 95.504 [ms]
[INFO] MatrixAssemblyPI: 71.04000000000001 [ms]
[INFO] MatrixAssemblyPII: 48.991 [ms]
DICPCG:  Solving for p, Initial residual = 0.01247987660372826, Final residual = 0.0001225320377470062, No Iterations 419
[INFO] SolveP: 3839.884 [ms]
time step continuity errors : sum local = 1.133726884436938e-09, global = 3.920818107810842e-12, cumulative = -1.772143098855817e-09
DILUPBiCGStab:  Solving for omega, Initial residual = 5.925656871111887e-05, Final residual = 4.97837448107095e-09, No Iterations 1
DILUPBiCGStab:  Solving for k, Initial residual = 0.9999999998192117, Final residual = 8.560071911602242e-07, No Iterations 1
[INFO] PIMPLEStep: 5422.615 [ms]
PIMPLE: converged in 9 iterations
[INFO] TimeStep: 39786.195 [ms]
ExecutionTime = 45.44 s  ClockTime = 46 s

--> FOAM Warning : 
    From virtual bool Foam::functionObjects::fieldSelection::checkSelection()
    in file functionObjects/fieldSelections/fieldSelection/fieldSelection.C at line 166
    Field nuTilda not found
--> FOAM Warning : 
    From virtual bool Foam::functionObjects::fieldSelection::checkSelection()
    in file functionObjects/fieldSelections/fieldSelection/fieldSelection.C at line 166
    Field gammaInt not found
--> FOAM Warning : 
    From virtual bool Foam::functionObjects::fieldSelection::checkSelection()
    in file functionObjects/fieldSelections/fieldSelection/fieldSelection.C at line 166
    Field ReThetat not found
--> FOAM Warning : 
    From virtual bool Foam::functionObjects::fieldSelection::checkSelection()
    in file functionObjects/fieldSelections/fieldSelection/fieldSelection.C at line 166
    Field epsilon not found
--> FOAM Warning : 
    From virtual bool Foam::functionObjects::solverFieldSelection::updateSelection()
    in file functionObjects/fieldSelections/solverFieldSelection/solverFieldSelection.C at line 85
    Valid solver fields are: 4(U k omega p)Courant Number mean: 0.004346612257572022 max: 11.32582925066383
Time = 1e-05

PIMPLE: iteration 1
velocityDampingConstraint velocityDamping damped 0 (0%) of cells, with max limit 300
[INFO] MatrixAssemblyU: 751.9589999999999 [ms]
smoothSolver:  Solving for Ux, Initial residual = 0.1807391014458929, Final residual = 0.0006313882688570889, No Iterations 1
smoothSolver:  Solving for Uy, Initial residual = 0.2370360264558276, Final residual = 0.001198507809423621, No Iterations 1
smoothSolver:  Solving for Uz, Initial residual = 0.1158712436034662, Final residual = 0.0004280570706125037, No Iterations 1
[INFO] MomentumPredictor: 93.273 [ms]
[INFO] MatrixAssemblyPI: 74.435 [ms]
[INFO] MatrixAssemblyPII: 48.838 [ms]
DICPCG:  Solving for p, Initial residual = 0.3109466261406401, Final residual = 0.003034816074786284, No Iterations 551
[INFO] SolveP: 5059.539 [ms]
time step continuity errors : sum local = 1.931910137522901e-08, global = 6.203754148072052e-11, cumulative = -1.710105557375096e-09
[INFO] PIMPLEStep: 6060.299 [ms]
PIMPLE: iteration 2
velocityDampingConstraint velocityDamping damped 0 (0%) of cells, with max limit 300
[INFO] MatrixAssemblyU: 744.319 [ms]
smoothSolver:  Solving for Ux, Initial residual = 0.02671053997321732, Final residual = 9.245904803406876e-05, No Iterations 1
smoothSolver:  Solving for Uy, Initial residual = 0.03767891428702604, Final residual = 0.0001885459405657539, No Iterations 1
smoothSolver:  Solving for Uz, Initial residual = 0.01606686660248412, Final residual = 5.843713124548426e-05, No Iterations 1
[INFO] MomentumPredictor: 93.128 [ms]
[INFO] MatrixAssemblyPI: 71.03100000000001 [ms]
[INFO] MatrixAssemblyPII: 49.004 [ms]
DICPCG:  Solving for p, Initial residual = 0.4121570249491432, Final residual = 0.004109250010491865, No Iterations 536
[INFO] SolveP: 4919.87 [ms]
time step continuity errors : sum local = 2.144405674286268e-08, global = 6.155002147885694e-11, cumulative = -1.648555535896239e-09
[INFO] PIMPLEStep: 5909.671 [ms]
PIMPLE: iteration 3
velocityDampingConstraint velocityDamping damped 0 (0%) of cells, with max limit 300
[INFO] MatrixAssemblyU: 749.895 [ms]
smoothSolver:  Solving for Ux, Initial residual = 0.006813383166512458, Final residual = 2.64257253427218e-05, No Iterations 1
smoothSolver:  Solving for Uy, Initial residual = 0.01025147437161377, Final residual = 5.692290824002505e-05, No Iterations 1
smoothSolver:  Solving for Uz, Initial residual = 0.004128543691658654, Final residual = 1.720021164871066e-05, No Iterations 1
[INFO] MomentumPredictor: 92.88200000000001 [ms]
[INFO] MatrixAssemblyPI: 70.86799999999999 [ms]
[INFO] MatrixAssemblyPII: 48.698 [ms]
DICPCG:  Solving for p, Initial residual = 0.4439006846167904, Final residual = 0.004411031098749366, No Iterations 508
[INFO] SolveP: 4654.701 [ms]
time step continuity errors : sum local = 1.773232308898829e-08, global = 1.415941131240582e-10, cumulative = -1.506961422772181e-09
[INFO] PIMPLEStep: 5649.817 [ms]
PIMPLE: iteration 4
velocityDampingConstraint velocityDamping damped 0 (0%) of cells, with max limit 300
[INFO] MatrixAssemblyU: 750.21 [ms]
smoothSolver:  Solving for Ux, Initial residual = 0.01193026948521957, Final residual = 4.382321696584013e-05, No Iterations 1
smoothSolver:  Solving for Uy, Initial residual = 0.01788799199644439, Final residual = 9.484169051655834e-05, No Iterations 1
smoothSolver:  Solving for Uz, Initial residual = 0.007260685512080902, Final residual = 2.832282894566216e-05, No Iterations 1
[INFO] MomentumPredictor: 93.425 [ms]
[INFO] MatrixAssemblyPI: 70.785 [ms]
[INFO] MatrixAssemblyPII: 48.921 [ms]
DICPCG:  Solving for p, Initial residual = 0.3331016381808534, Final residual = 0.003250731068170228, No Iterations 486
[INFO] SolveP: 4434.981 [ms]
time step continuity errors : sum local = 1.30659424861266e-08, global = 4.622492294649796e-11, cumulative = -1.460736499825683e-09
[INFO] PIMPLEStep: 5429.618 [ms]
PIMPLE: iteration 5
velocityDampingConstraint velocityDamping damped 0 (0%) of cells, with max limit 300
[INFO] MatrixAssemblyU: 748.207 [ms]
smoothSolver:  Solving for Ux, Initial residual = 0.008523798531609247, Final residual = 3.082244785899224e-05, No Iterations 1
smoothSolver:  Solving for Uy, Initial residual = 0.01291422595371844, Final residual = 6.733069467500093e-05, No Iterations 1
smoothSolver:  Solving for Uz, Initial residual = 0.005268072142311927, Final residual = 2.008460429978207e-05, No Iterations 1
[INFO] MomentumPredictor: 92.819 [ms]
[INFO] MatrixAssemblyPI: 70.985 [ms]
[INFO] MatrixAssemblyPII: 48.868 [ms]
DICPCG:  Solving for p, Initial residual = 0.2319367000783702, Final residual = 0.00224143481847568, No Iterations 471
[INFO] SolveP: 4315.246 [ms]
time step continuity errors : sum local = 8.833122965198751e-09, global = 1.97026346337623e-11, cumulative = -1.441033865191921e-09
[INFO] PIMPLEStep: 5308.179 [ms]
PIMPLE: iteration 6
velocityDampingConstraint velocityDamping damped 0 (0%) of cells, with max limit 300
[INFO] MatrixAssemblyU: 746.376 [ms]
smoothSolver:  Solving for Ux, Initial residual = 0.004487422590013593, Final residual = 1.593457429818641e-05, No Iterations 1
smoothSolver:  Solving for Uy, Initial residual = 0.006822755886806293, Final residual = 3.485679125052657e-05, No Iterations 1
smoothSolver:  Solving for Uz, Initial residual = 0.00280175238034299, Final residual = 1.045424410404168e-05, No Iterations 1
[INFO] MomentumPredictor: 93.39400000000001 [ms]
[INFO] MatrixAssemblyPI: 70.994 [ms]
[INFO] MatrixAssemblyPII: 48.932 [ms]
DICPCG:  Solving for p, Initial residual = 0.1449090224992605, Final residual = 0.001423431116247475, No Iterations 275
[INFO] SolveP: 2531.089 [ms]
time step continuity errors : sum local = 5.698940069194913e-09, global = 4.679410319074521e-10, cumulative = -9.730928332844687e-10
[INFO] PIMPLEStep: 3523.753 [ms]
PIMPLE: iteration 7
velocityDampingConstraint velocityDamping damped 0 (0%) of cells, with max limit 300
[INFO] MatrixAssemblyU: 749.1369999999999 [ms]
smoothSolver:  Solving for Ux, Initial residual = 0.001963058996630646, Final residual = 6.743924989416311e-06, No Iterations 1
smoothSolver:  Solving for Uy, Initial residual = 0.002938913573232525, Final residual = 1.461170456294917e-05, No Iterations 1
smoothSolver:  Solving for Uz, Initial residual = 0.001216826390822662, Final residual = 4.437682912974972e-06, No Iterations 1
[INFO] MomentumPredictor: 93.56999999999999 [ms]
[INFO] MatrixAssemblyPI: 70.931 [ms]
[INFO] MatrixAssemblyPII: 48.819 [ms]
DICPCG:  Solving for p, Initial residual = 0.08821013899417955, Final residual = 0.0008717798414519558, No Iterations 194
[INFO] SolveP: 1784.939 [ms]
time step continuity errors : sum local = 3.532994180155255e-09, global = 3.277082777234614e-10, cumulative = -6.453845555610073e-10
[INFO] PIMPLEStep: 2779.062 [ms]
PIMPLE: iteration 8
velocityDampingConstraint velocityDamping damped 0 (0%) of cells, with max limit 300
[INFO] MatrixAssemblyU: 745.308 [ms]
smoothSolver:  Solving for Ux, Initial residual = 0.0007000990071048292, Final residual = 2.36186550645486e-06, No Iterations 1
smoothSolver:  Solving for Uy, Initial residual = 0.001039415072894893, Final residual = 4.941947576052495e-06, No Iterations 1
smoothSolver:  Solving for Uz, Initial residual = 0.0004333097234296979, Final residual = 1.531176996424905e-06, No Iterations 1
[INFO] MomentumPredictor: 93.15000000000001 [ms]
[INFO] MatrixAssemblyPI: 71.02200000000001 [ms]
[INFO] MatrixAssemblyPII: 49.018 [ms]
DICPCG:  Solving for p, Initial residual = 0.05245719445637843, Final residual = 0.00052161442251934, No Iterations 372
[INFO] SolveP: 3406.304 [ms]
time step continuity errors : sum local = 2.143772872400267e-09, global = -1.941314791660556e-11, cumulative = -6.647977034776128e-10
[INFO] PIMPLEStep: 4397.45 [ms]
PIMPLE: iteration 9
velocityDampingConstraint velocityDamping damped 0 (0%) of cells, with max limit 300
[INFO] MatrixAssemblyU: 745.997 [ms]
smoothSolver:  Solving for Ux, Initial residual = 0.0002136896096318221, Final residual = 6.141633460923837e-07, No Iterations 1
smoothSolver:  Solving for Uy, Initial residual = 0.000284535272789004, Final residual = 1.204109488302672e-06, No Iterations 1
smoothSolver:  Solving for Uz, Initial residual = 0.0001197994899675369, Final residual = 3.972965092605008e-07, No Iterations 1
[INFO] MomentumPredictor: 93.20999999999999 [ms]
[INFO] MatrixAssemblyPI: 71.10899999999999 [ms]
[INFO] MatrixAssemblyPII: 48.857 [ms]
DICPCG:  Solving for p, Initial residual = 0.03076793602919792, Final residual = 0.0003062216362041472, No Iterations 199
[INFO] SolveP: 1831.56 [ms]
time step continuity errors : sum local = 1.282006803974324e-09, global = 1.601718373059103e-10, cumulative = -5.046258661717024e-10
[INFO] PIMPLEStep: 2822.376 [ms]
PIMPLE: iteration 10
velocityDampingConstraint velocityDamping damped 0 (0%) of cells, with max limit 300
[INFO] MatrixAssemblyU: 743.027 [ms]
smoothSolver:  Solving for Ux, Initial residual = 4.384495739048323e-05, Final residual = 1.272369171622839e-07, No Iterations 1
smoothSolver:  Solving for Uy, Initial residual = 6.100987063776233e-05, Final residual = 2.562166578142409e-07, No Iterations 1
smoothSolver:  Solving for Uz, Initial residual = 2.52987608254985e-05, Final residual = 9.420139677724503e-08, No Iterations 1
[INFO] MomentumPredictor: 92.825 [ms]
[INFO] MatrixAssemblyPI: 71.139 [ms]
[INFO] MatrixAssemblyPII: 48.909 [ms]
DICPCG:  Solving for p, Initial residual = 0.01827008940230982, Final residual = 0.0001761205233359298, No Iterations 419
[INFO] SolveP: 3830.116 [ms]
time step continuity errors : sum local = 7.417476711324996e-10, global = -2.350917117084727e-12, cumulative = -5.069767832887872e-10
[INFO] PIMPLEStep: 4817.912 [ms]
PIMPLE: iteration 11
velocityDampingConstraint velocityDamping damped 0 (0%) of cells, with max limit 300
[INFO] MatrixAssemblyU: 743.977 [ms]
smoothSolver:  Solving for Ux, Initial residual = 4.026593411951967e-05, Final residual = 1.246477896874135e-07, No Iterations 1
smoothSolver:  Solving for Uy, Initial residual = 5.632890833928213e-05, Final residual = 2.786334947036945e-07, No Iterations 1
smoothSolver:  Solving for Uz, Initial residual = 2.054701983593946e-05, Final residual = 9.172090171110937e-08, No Iterations 1
[INFO] MomentumPredictor: 93.404 [ms]
[INFO] MatrixAssemblyPI: 70.93600000000001 [ms]
[INFO] MatrixAssemblyPII: 48.96 [ms]
DICPCG:  Solving for p, Initial residual = 0.01088923283276952, Final residual = 0.0001086532271797036, No Iterations 252
[INFO] SolveP: 2313.57 [ms]
time step continuity errors : sum local = 4.609112173026079e-10, global = 4.730156455387729e-11, cumulative = -4.596752187349099e-10
DILUPBiCGStab:  Solving for omega, Initial residual = 5.750435300456718e-05, Final residual = 1.853775343986021e-09, No Iterations 1
DILUPBiCGStab:  Solving for k, Initial residual = 0.05129708576445353, Final residual = 2.945281551402322e-08, No Iterations 1
[INFO] PIMPLEStep: 3886.87 [ms]
PIMPLE: converged in 11 iterations
[INFO] TimeStep: 50605.026 [ms]
ExecutionTime = 96.26000000000001 s  ClockTime = 97 s

Courant Number mean: 0.00434672798622245 max: 11.91569882783357
Time = 1.5e-05

PIMPLE: iteration 1
velocityDampingConstraint velocityDamping damped 0 (0%) of cells, with max limit 300
[INFO] MatrixAssemblyU: 748.625 [ms]
smoothSolver:  Solving for Ux, Initial residual = 0.07381195041756509, Final residual = 0.0002582457229969523, No Iterations 1
smoothSolver:  Solving for Uy, Initial residual = 0.1186109693631932, Final residual = 0.000595035154148208, No Iterations 1
smoothSolver:  Solving for Uz, Initial residual = 0.04516620951909722, Final residual = 0.0001677494400037368, No Iterations 1
[INFO] MomentumPredictor: 93.014 [ms]
[INFO] MatrixAssemblyPI: 74.65000000000001 [ms]
[INFO] MatrixAssemblyPII: 48.88 [ms]
DICPCG:  Solving for p, Initial residual = 0.2595773396508357, Final residual = 0.002557978872570222, No Iterations 532
[INFO] SolveP: 4859.867 [ms]
time step continuity errors : sum local = 9.932651932776403e-09, global = -4.566688226125929e-11, cumulative = -5.053421009961691e-10
[INFO] PIMPLEStep: 5858.078 [ms]
PIMPLE: iteration 2
velocityDampingConstraint velocityDamping damped 0 (0%) of cells, with max limit 300
[INFO] MatrixAssemblyU: 749.324 [ms]
smoothSolver:  Solving for Ux, Initial residual = 0.01388552817344543, Final residual = 4.797171097817736e-05, No Iterations 1
smoothSolver:  Solving for Uy, Initial residual = 0.0229670842199194, Final residual = 0.0001135960393639199, No Iterations 1
smoothSolver:  Solving for Uz, Initial residual = 0.009293443282960598, Final residual = 3.404711508071953e-05, No Iterations 1
[INFO] MomentumPredictor: 93.328 [ms]
[INFO] MatrixAssemblyPI: 70.75 [ms]
[INFO] MatrixAssemblyPII: 48.975 [ms]
DICPCG:  Solving for p, Initial residual = 0.3132777126675895, Final residual = 0.00311502715783071, No Iterations 519
[INFO] SolveP: 4748.887 [ms]
time step continuity errors : sum local = 9.664092682779704e-09, global = -1.046421710835667e-10, cumulative = -6.099842720797358e-10
[INFO] PIMPLEStep: 5743.884 [ms]
PIMPLE: iteration 3
velocityDampingConstraint velocityDamping damped 0 (0%) of cells, with max limit 300
[INFO] MatrixAssemblyU: 749.546 [ms]
smoothSolver:  Solving for Ux, Initial residual = 0.003091313938263826, Final residual = 1.192151311639662e-05, No Iterations 1
smoothSolver:  Solving for Uy, Initial residual = 0.005061157746538671, Final residual = 2.788477855391761e-05, No Iterations 1
smoothSolver:  Solving for Uz, Initial residual = 0.002048852084233025, Final residual = 8.372919478410612e-06, No Iterations 1
[INFO] MomentumPredictor: 93.11499999999999 [ms]
[INFO] MatrixAssemblyPI: 71.07599999999999 [ms]
[INFO] MatrixAssemblyPII: 48.963 [ms]
DICPCG:  Solving for p, Initial residual = 0.2953655399976071, Final residual = 0.00284907918160197, No Iterations 494
[INFO] SolveP: 4533.796 [ms]
time step continuity errors : sum local = 7.074493796313197e-09, global = -3.129077045790997e-11, cumulative = -6.412750425376458e-10
[INFO] PIMPLEStep: 5528.127 [ms]
PIMPLE: iteration 4
velocityDampingConstraint velocityDamping damped 0 (0%) of cells, with max limit 300
[INFO] MatrixAssemblyU: 746.6079999999999 [ms]
smoothSolver:  Solving for Ux, Initial residual = 0.004616586247942586, Final residual = 1.691981489015403e-05, No Iterations 1
smoothSolver:  Solving for Uy, Initial residual = 0.007438768513709098, Final residual = 3.893540869124043e-05, No Iterations 1
smoothSolver:  Solving for Uz, Initial residual = 0.00303721584728907, Final residual = 1.174398843243262e-05, No Iterations 1
[INFO] MomentumPredictor: 93.408 [ms]
[INFO] MatrixAssemblyPI: 71.05800000000001 [ms]
[INFO] MatrixAssemblyPII: 48.942 [ms]
DICPCG:  Solving for p, Initial residual = 0.235123126954504, Final residual = 0.002232315190433108, No Iterations 485
[INFO] SolveP: 4447.357 [ms]
time step continuity errors : sum local = 4.701701466681347e-09, global = -1.41227028739571e-11, cumulative = -6.553977454116029e-10
[INFO] PIMPLEStep: 5439.313 [ms]
PIMPLE: iteration 5
velocityDampingConstraint velocityDamping damped 0 (0%) of cells, with max limit 300
[INFO] MatrixAssemblyU: 748.109 [ms]
smoothSolver:  Solving for Ux, Initial residual = 0.002999063817349914, Final residual = 1.083056516049441e-05, No Iterations 1
smoothSolver:  Solving for Uy, Initial residual = 0.004779203668787695, Final residual = 2.461824977415029e-05, No Iterations 1
smoothSolver:  Solving for Uz, Initial residual = 0.001951040273064342, Final residual = 7.41698460845859e-06, No Iterations 1
[INFO] MomentumPredictor: 92.765 [ms]
[INFO] MatrixAssemblyPI: 70.98 [ms]
[INFO] MatrixAssemblyPII: 48.682 [ms]
DICPCG:  Solving for p, Initial residual = 0.1700082794679328, Final residual = 0.001662470665844142, No Iterations 470
[INFO] SolveP: 4301.203 [ms]
time step continuity errors : sum local = 3.143382157829232e-09, global = -6.400015296474014e-12, cumulative = -6.617977607080769e-10
[INFO] PIMPLEStep: 5294.927 [ms]
PIMPLE: iteration 6
velocityDampingConstraint velocityDamping damped 0 (0%) of cells, with max limit 300
[INFO] MatrixAssemblyU: 748.939 [ms]
smoothSolver:  Solving for Ux, Initial residual = 0.001510361304219939, Final residual = 5.348353105362888e-06, No Iterations 1
smoothSolver:  Solving for Uy, Initial residual = 0.002387208535463677, Final residual = 1.205777200241067e-05, No Iterations 1
smoothSolver:  Solving for Uz, Initial residual = 0.0009739118169315807, Final residual = 3.633468016703482e-06, No Iterations 1
[INFO] MomentumPredictor: 93.526 [ms]
[INFO] MatrixAssemblyPI: 70.795 [ms]
[INFO] MatrixAssemblyPII: 49.215 [ms]
DICPCG:  Solving for p, Initial residual = 0.1135274704281523, Final residual = 0.00113330860132401, No Iterations 273
[INFO] SolveP: 2519.981 [ms]
time step continuity errors : sum local = 2.012400460563754e-09, global = -1.554863393099606e-10, cumulative = -8.172841000180375e-10
[INFO] PIMPLEStep: 3514.164 [ms]
PIMPLE: iteration 7
velocityDampingConstraint velocityDamping damped 0 (0%) of cells, with max limit 300
[INFO] MatrixAssemblyU: 746.825 [ms]
smoothSolver:  Solving for Ux, Initial residual = 0.0006497831528817072, Final residual = 2.219172432015853e-06, No Iterations 1
smoothSolver:  Solving for Uy, Initial residual = 0.001007628397070337, Final residual = 4.933224502022594e-06, No Iterations 1
smoothSolver:  Solving for Uz, Initial residual = 0.0004123387324161208, Final residual = 1.499674282041309e-06, No Iterations 1
[INFO] MomentumPredictor: 92.807 [ms]
[INFO] MatrixAssemblyPI: 70.73099999999999 [ms]
[INFO] MatrixAssemblyPII: 48.705 [ms]
DICPCG:  Solving for p, Initial residual = 0.07071983644879154, Final residual = 0.0007014712654746344, No Iterations 191
[INFO] SolveP: 1748.252 [ms]
time step continuity errors : sum local = 1.2185104144264e-09, global = -1.093196504645824e-10, cumulative = -9.266037504826199e-10
[INFO] PIMPLEStep: 2739.302 [ms]
PIMPLE: iteration 8
velocityDampingConstraint velocityDamping damped 0 (0%) of cells, with max limit 300
[INFO] MatrixAssemblyU: 744.534 [ms]
smoothSolver:  Solving for Ux, Initial residual = 0.0002302668657813986, Final residual = 7.712083099516494e-07, No Iterations 1
smoothSolver:  Solving for Uy, Initial residual = 0.0003539697773248507, Final residual = 1.639801961163004e-06, No Iterations 1
smoothSolver:  Solving for Uz, Initial residual = 0.0001456046475011445, Final residual = 5.081907694591831e-07, No Iterations 1
[INFO] MomentumPredictor: 93.065 [ms]
[INFO] MatrixAssemblyPI: 71.035 [ms]
[INFO] MatrixAssemblyPII: 48.551 [ms]
DICPCG:  Solving for p, Initial residual = 0.04223723549003065, Final residual = 0.0004201859262639612, No Iterations 383
[INFO] SolveP: 3507.817 [ms]
time step continuity errors : sum local = 7.197456884189863e-10, global = 7.449911366147341e-12, cumulative = -9.191538391164726e-10
[INFO] PIMPLEStep: 4497.059 [ms]
PIMPLE: iteration 9
velocityDampingConstraint velocityDamping damped 0 (0%) of cells, with max limit 300
[INFO] MatrixAssemblyU: 744.909 [ms]
smoothSolver:  Solving for Ux, Initial residual = 7.023634488274077e-05, Final residual = 1.98602924332271e-07, No Iterations 1
smoothSolver:  Solving for Uy, Initial residual = 9.613089916489748e-05, Final residual = 3.90890219821273e-07, No Iterations 1
smoothSolver:  Solving for Uz, Initial residual = 4.002662021509236e-05, Final residual = 1.294287321191187e-07, No Iterations 1
[INFO] MomentumPredictor: 93.477 [ms]
[INFO] MatrixAssemblyPI: 70.538 [ms]
[INFO] MatrixAssemblyPII: 48.674 [ms]
DICPCG:  Solving for p, Initial residual = 0.02494229764332422, Final residual = 0.0002493895973707702, No Iterations 266
[INFO] SolveP: 2432.396 [ms]
time step continuity errors : sum local = 4.207967711444374e-10, global = -4.086302536984592e-11, cumulative = -9.600168644863185e-10
[INFO] PIMPLEStep: 3422.146 [ms]
PIMPLE: iteration 10
velocityDampingConstraint velocityDamping damped 0 (0%) of cells, with max limit 300
[INFO] MatrixAssemblyU: 745.043 [ms]
smoothSolver:  Solving for Ux, Initial residual = 1.403013477534366e-05, Final residual = 3.929612476645275e-08, No Iterations 1
smoothSolver:  Solving for Uy, Initial residual = 1.966875697719442e-05, Final residual = 8.317381218373966e-08, No Iterations 1
smoothSolver:  Solving for Uz, Initial residual = 7.881542080984856e-06, Final residual = 3.05926657015628e-08, No Iterations 1
[INFO] MomentumPredictor: 93.236 [ms]
[INFO] MatrixAssemblyPI: 70.685 [ms]
[INFO] MatrixAssemblyPII: 48.663 [ms]
DICPCG:  Solving for p, Initial residual = 0.01452651223317967, Final residual = 0.0001422828199562639, No Iterations 420
[INFO] SolveP: 3843.787 [ms]
time step continuity errors : sum local = 2.38957823773334e-10, global = 7.793439159857537e-13, cumulative = -9.592375205703328e-10
DILUPBiCGStab:  Solving for omega, Initial residual = 5.555690223444947e-05, Final residual = 1.51947914061819e-09, No Iterations 1
DILUPBiCGStab:  Solving for k, Initial residual = 0.02595846641884201, Final residual = 1.588481506151816e-08, No Iterations 1
[INFO] PIMPLEStep: 5419.307 [ms]
PIMPLE: converged in 10 iterations
[INFO] TimeStep: 47476.446 [ms]
ExecutionTime = 143.93 s  ClockTime = 145 s

Courant Number mean: 0.004346672010300286 max: 12.21424272670525
Time = 2e-05

PIMPLE: iteration 1
velocityDampingConstraint velocityDamping damped 0 (0%) of cells, with max limit 300
[INFO] MatrixAssemblyU: 750.421 [ms]
smoothSolver:  Solving for Ux, Initial residual = 0.0003333584131917863, Final residual = 2.145707157076012e-06, No Iterations 1
smoothSolver:  Solving for Uy, Initial residual = 0.001004721858652331, Final residual = 5.576713420628133e-06, No Iterations 1
smoothSolver:  Solving for Uz, Initial residual = 0.0004112408900447949, Final residual = 2.254983802802877e-06, No Iterations 1
[INFO] MomentumPredictor: 93.571 [ms]
[INFO] MatrixAssemblyPI: 74.73999999999999 [ms]
[INFO] MatrixAssemblyPII: 48.657 [ms]
DICPCG:  Solving for p, Initial residual = 0.146465367539815, Final residual = 0.001426366959068402, No Iterations 11
[INFO] SolveP: 114.074 [ms]
time step continuity errors : sum local = 2.272691713498478e-09, global = -7.280903948181298e-11, cumulative = -1.032046560052146e-09
[INFO] PIMPLEStep: 1113.633 [ms]
PIMPLE: iteration 2
velocityDampingConstraint velocityDamping damped 0 (0%) of cells, with max limit 300
[INFO] MatrixAssemblyU: 745.9349999999999 [ms]
smoothSolver:  Solving for Ux, Initial residual = 9.641077581011722e-05, Final residual = 6.403041929362461e-07, No Iterations 1
smoothSolver:  Solving for Uy, Initial residual = 0.0002896310794692257, Final residual = 1.66869511415652e-06, No Iterations 1
smoothSolver:  Solving for Uz, Initial residual = 0.0001183412857035761, Final residual = 6.658998058112134e-07, No Iterations 1
[INFO] MomentumPredictor: 93.574 [ms]
[INFO] MatrixAssemblyPI: 70.569 [ms]
[INFO] MatrixAssemblyPII: 48.791 [ms]
DICPCG:  Solving for p, Initial residual = 0.1478719697890679, Final residual = 0.001447196551333275, No Iterations 18
[INFO] SolveP: 177.531 [ms]
time step continuity errors : sum local = 2.199860968668618e-09, global = -8.316536480432822e-11, cumulative = -1.115211924856474e-09
[INFO] PIMPLEStep: 1168.32 [ms]
PIMPLE: iteration 3
velocityDampingConstraint velocityDamping damped 0 (0%) of cells, with max limit 300
[INFO] MatrixAssemblyU: 745.946 [ms]
smoothSolver:  Solving for Ux, Initial residual = 2.201382991370007e-05, Final residual = 1.627728571047305e-07, No Iterations 1
smoothSolver:  Solving for Uy, Initial residual = 6.823681485034368e-05, Final residual = 4.310767098032759e-07, No Iterations 1
smoothSolver:  Solving for Uz, Initial residual = 2.776794729915916e-05, Final residual = 1.654083344452053e-07, No Iterations 1
[INFO] MomentumPredictor: 93.254 [ms]
[INFO] MatrixAssemblyPI: 71.012 [ms]
[INFO] MatrixAssemblyPII: 49.196 [ms]
DICPCG:  Solving for p, Initial residual = 0.1019815154877632, Final residual = 0.001018717159081698, No Iterations 23
[INFO] SolveP: 223.941 [ms]
time step continuity errors : sum local = 1.499379298642956e-09, global = -8.658342482684008e-11, cumulative = -1.201795349683314e-09
[INFO] PIMPLEStep: 1214.801 [ms]
PIMPLE: iteration 4
velocityDampingConstraint velocityDamping damped 0 (0%) of cells, with max limit 300
[INFO] MatrixAssemblyU: 745.1079999999999 [ms]
smoothSolver:  Solving for Ux, Initial residual = 8.69235854036836e-06, Final residual = 6.346914020390872e-08, No Iterations 1
smoothSolver:  Solving for Uy, Initial residual = 2.328918963253733e-05, Final residual = 1.404294443146506e-07, No Iterations 1
smoothSolver:  Solving for Uz, Initial residual = 9.495712357691208e-06, Final residual = 5.769903485744324e-08, No Iterations 1
[INFO] MomentumPredictor: 93.328 [ms]
[INFO] MatrixAssemblyPI: 70.97799999999999 [ms]
[INFO] MatrixAssemblyPII: 48.865 [ms]
DICPCG:  Solving for p, Initial residual = 0.06090455309232468, Final residual = 0.0006042730050760553, No Iterations 34
[INFO] SolveP: 322.857 [ms]
time step continuity errors : sum local = 8.71916907650713e-10, global = -8.771863170267857e-11, cumulative = -1.289513981385993e-09
[INFO] PIMPLEStep: 1313.034 [ms]
PIMPLE: iteration 5
velocityDampingConstraint velocityDamping damped 0 (0%) of cells, with max limit 300
[INFO] MatrixAssemblyU: 744.972 [ms]
smoothSolver:  Solving for Ux, Initial residual = 6.716887697142268e-06, Final residual = 4.294987971145722e-08, No Iterations 1
smoothSolver:  Solving for Uy, Initial residual = 1.687891952150094e-05, Final residual = 8.954460429338248e-08, No Iterations 1
smoothSolver:  Solving for Uz, Initial residual = 7.362075887422711e-06, Final residual = 3.823267793184914e-08, No Iterations 1
[INFO] MomentumPredictor: 92.946 [ms]
[INFO] MatrixAssemblyPI: 70.877 [ms]
[INFO] MatrixAssemblyPII: 48.619 [ms]
DICPCG:  Solving for p, Initial residual = 0.03523666887999687, Final residual = 0.0003481314006688757, No Iterations 267
[INFO] SolveP: 2455.443 [ms]
time step continuity errors : sum local = 4.964892629352554e-10, global = -4.46662524804974e-12, cumulative = -1.293980606634042e-09
[INFO] PIMPLEStep: 3445.365 [ms]
PIMPLE: iteration 6
velocityDampingConstraint velocityDamping damped 0 (0%) of cells, with max limit 300
[INFO] MatrixAssemblyU: 746.583 [ms]
smoothSolver:  Solving for Ux, Initial residual = 1.627038471965892e-05, Final residual = 4.048535191249039e-08, No Iterations 1
smoothSolver:  Solving for Uy, Initial residual = 1.30578983118006e-05, Final residual = 6.824577713321134e-08, No Iterations 1
smoothSolver:  Solving for Uz, Initial residual = 5.81573320282974e-06, Final residual = 2.748077537317398e-08, No Iterations 1
[INFO] MomentumPredictor: 92.916 [ms]
[INFO] MatrixAssemblyPI: 71.18300000000001 [ms]
[INFO] MatrixAssemblyPII: 48.84 [ms]
DICPCG:  Solving for p, Initial residual = 0.02012022137986447, Final residual = 0.0002001150062706338, No Iterations 37
[INFO] SolveP: 351.257 [ms]
time step continuity errors : sum local = 2.818118237778998e-10, global = -4.423885329430113e-11, cumulative = -1.338219459928343e-09
[INFO] PIMPLEStep: 1342.721 [ms]
PIMPLE: iteration 7
velocityDampingConstraint velocityDamping damped 0 (0%) of cells, with max limit 300
[INFO] MatrixAssemblyU: 745.442 [ms]
smoothSolver:  Solving for Ux, Initial residual = 6.084475576358044e-06, Final residual = 2.040821915411409e-08, No Iterations 1
smoothSolver:  Solving for Uy, Initial residual = 6.634416866060719e-06, Final residual = 3.605515636017898e-08, No Iterations 1
smoothSolver:  Solving for Uz, Initial residual = 2.961593419718376e-06, Final residual = 1.467839221336571e-08, No Iterations 1
[INFO] MomentumPredictor: 93.199 [ms]
[INFO] MatrixAssemblyPI: 70.87 [ms]
[INFO] MatrixAssemblyPII: 48.544 [ms]
DICPCG:  Solving for p, Initial residual = 0.01129913038244556, Final residual = 0.0001121274460245394, No Iterations 247
[INFO] SolveP: 2271.124 [ms]
time step continuity errors : sum local = 1.573186604746881e-10, global = -2.26145521203668e-12, cumulative = -1.34048091514038e-09
[INFO] PIMPLEStep: 3261.233 [ms]
PIMPLE: iteration 8
velocityDampingConstraint velocityDamping damped 0 (0%) of cells, with max limit 300
[INFO] MatrixAssemblyU: 744.571 [ms]
smoothSolver:  Solving for Ux, Initial residual = 8.096813963958596e-06, Final residual = 1.624977719091825e-08, No Iterations 1
smoothSolver:  Solving for Uy, Initial residual = 4.385939156840816e-06, Final residual = 2.281057941746099e-08, No Iterations 1
smoothSolver:  Solving for Uz, Initial residual = 1.996355272543707e-06, Final residual = 9.269553876810691e-09, No Iterations 1
[INFO] MomentumPredictor: 93.39700000000001 [ms]
[INFO] MatrixAssemblyPI: 70.703 [ms]
[INFO] MatrixAssemblyPII: 48.903 [ms]
DICPCG:  Solving for p, Initial residual = 0.006372596920820936, Final residual = 6.185526189433113e-05, No Iterations 11
[INFO] SolveP: 114.942 [ms]
time step continuity errors : sum local = 8.693000727178071e-11, global = -2.038573819237789e-11, cumulative = -1.360866653332758e-09
[INFO] PIMPLEStep: 1104.434 [ms]
PIMPLE: iteration 9
velocityDampingConstraint velocityDamping damped 0 (0%) of cells, with max limit 300
[INFO] MatrixAssemblyU: 746.384 [ms]
smoothSolver:  Solving for Ux, Initial residual = 2.559014992699987e-06, Final residual = 6.420549796254535e-09, No Iterations 1
smoothSolver:  Solving for Uy, Initial residual = 1.785477097020517e-06, Final residual = 1.021993951667114e-08, No Iterations 1
smoothSolver:  Solving for Uz, Initial residual = 8.056052322044727e-07, Final residual = 4.106167546852341e-09, No Iterations 1
[INFO] MomentumPredictor: 93.44 [ms]
[INFO] MatrixAssemblyPI: 71.14100000000001 [ms]
[INFO] MatrixAssemblyPII: 48.634 [ms]
DICPCG:  Solving for p, Initial residual = 0.003643732011397147, Final residual = 3.629354320579959e-05, No Iterations 268
[INFO] SolveP: 2463.437 [ms]
time step continuity errors : sum local = 5.094490168239389e-11, global = 4.936888064811127e-13, cumulative = -1.360372964526277e-09
[INFO] PIMPLEStep: 3455.253 [ms]
PIMPLE: iteration 10
velocityDampingConstraint velocityDamping damped 0 (0%) of cells, with max limit 300
[INFO] MatrixAssemblyU: 745.04 [ms]
smoothSolver:  Solving for Ux, Initial residual = 3.393253647854954e-06, Final residual = 5.32167763851288e-09, No Iterations 1
smoothSolver:  Solving for Uy, Initial residual = 1.451080876375807e-06, Final residual = 7.685876876437407e-09, No Iterations 1
smoothSolver:  Solving for Uz, Initial residual = 7.198665028607247e-07, Final residual = 3.078305861182195e-09, No Iterations 1
[INFO] MomentumPredictor: 93.23699999999999 [ms]
[INFO] MatrixAssemblyPI: 70.98699999999999 [ms]
[INFO] MatrixAssemblyPII: 48.251 [ms]
DICPCG:  Solving for p, Initial residual = 0.002119640126295118, Final residual = 2.055579126762292e-05, No Iterations 263
[INFO] SolveP: 2406.489 [ms]
time step continuity errors : sum local = 2.888127928735469e-11, global = -5.035476175657661e-13, cumulative = -1.360876512143843e-09
[INFO] PIMPLEStep: 3396.595 [ms]
PIMPLE: iteration 11
velocityDampingConstraint velocityDamping damped 0 (0%) of cells, with max limit 300
[INFO] MatrixAssemblyU: 746.774 [ms]
smoothSolver:  Solving for Ux, Initial residual = 2.213205457803169e-06, Final residual = 3.589765129998387e-09, No Iterations 1
smoothSolver:  Solving for Uy, Initial residual = 8.494916203370823e-07, Final residual = 4.748792809551029e-09, No Iterations 1
smoothSolver:  Solving for Uz, Initial residual = 3.964225588221217e-07, Final residual = 1.82535609228151e-09, No Iterations 1
[INFO] MomentumPredictor: 94.423 [ms]
[INFO] MatrixAssemblyPI: 70.902 [ms]
[INFO] MatrixAssemblyPII: 49.269 [ms]
DICPCG:  Solving for p, Initial residual = 0.001244153328704716, Final residual = 1.188077268568662e-05, No Iterations 14
[INFO] SolveP: 141.681 [ms]
time step continuity errors : sum local = 1.669859752174455e-11, global = -3.442346162159261e-12, cumulative = -1.364318858306002e-09
[INFO] PIMPLEStep: 1134.68 [ms]
PIMPLE: iteration 12
velocityDampingConstraint velocityDamping damped 0 (0%) of cells, with max limit 300
[INFO] MatrixAssemblyU: 745.649 [ms]
smoothSolver:  Solving for Ux, Initial residual = 6.932558010765558e-07, Final residual = 1.448154477221747e-09, No Iterations 1
smoothSolver:  Solving for Uy, Initial residual = 3.399384816106811e-07, Final residual = 2.27720590021966e-09, No Iterations 1
smoothSolver:  Solving for Uz, Initial residual = 1.536398402035282e-07, Final residual = 8.44364175077048e-10, No Iterations 1
[INFO] MomentumPredictor: 93.736 [ms]
[INFO] MatrixAssemblyPI: 70.858 [ms]
[INFO] MatrixAssemblyPII: 48.759 [ms]
DICPCG:  Solving for p, Initial residual = 0.0007307991902646308, Final residual = 7.20230971334779e-06, No Iterations 263
[INFO] SolveP: 2407.711 [ms]
time step continuity errors : sum local = 1.012074558034405e-11, global = 4.487641846539389e-14, cumulative = -1.364273981887537e-09
[INFO] PIMPLEStep: 3398.716 [ms]
PIMPLE: iteration 13
velocityDampingConstraint velocityDamping damped 0 (0%) of cells, with max limit 300
[INFO] MatrixAssemblyU: 744.92 [ms]
smoothSolver:  Solving for Ux, Initial residual = 6.258717777967183e-07, Final residual = 1.05981749202156e-09, No Iterations 1
smoothSolver:  Solving for Uy, Initial residual = 2.699910969535478e-07, Final residual = 1.708562182379551e-09, No Iterations 1
smoothSolver:  Solving for Uz, Initial residual = 1.268266095872166e-07, Final residual = 6.111413942512704e-10, No Iterations 1
[INFO] MomentumPredictor: 93.60899999999999 [ms]
[INFO] MatrixAssemblyPI: 71.089 [ms]
[INFO] MatrixAssemblyPII: 48.719 [ms]
DICPCG:  Solving for p, Initial residual = 0.0004354665780311544, Final residual = 4.32571890558177e-06, No Iterations 84
[INFO] SolveP: 782.659 [ms]
time step continuity errors : sum local = 6.079280839649665e-12, global = -1.169094802134263e-12, cumulative = -1.365443076689671e-09
DILUPBiCGStab:  Solving for omega, Initial residual = 5.356396214512176e-05, Final residual = 1.165181334338191e-09, No Iterations 1
DILUPBiCGStab:  Solving for k, Initial residual = 0.01709655425978178, Final residual = 1.067689713644941e-08, No Iterations 1
[INFO] PIMPLEStep: 2355.572 [ms]
PIMPLE: converged in 13 iterations
[INFO] TimeStep: 27726.62 [ms]
ExecutionTime = 172 s  ClockTime = 173 s

Courant Number mean: 0.004346591756777526 max: 12.26778817219416
Time = 2.5e-05

PIMPLE: iteration 1
velocityDampingConstraint velocityDamping damped 0 (0%) of cells, with max limit 300
[INFO] MatrixAssemblyU: 748.362 [ms]
smoothSolver:  Solving for Ux, Initial residual = 0.0002423630992349617, Final residual = 1.432036316614496e-06, No Iterations 1
smoothSolver:  Solving for Uy, Initial residual = 0.0007624136072958773, Final residual = 3.933042205289232e-06, No Iterations 1
smoothSolver:  Solving for Uz, Initial residual = 0.0002927088676885413, Final residual = 1.556253957003154e-06, No Iterations 1
[INFO] MomentumPredictor: 93.792 [ms]
[INFO] MatrixAssemblyPI: 76.889 [ms]
[INFO] MatrixAssemblyPII: 48.855 [ms]
DICPCG:  Solving for p, Initial residual = 0.07927138991497727, Final residual = 0.0007738319813618879, No Iterations 13
[INFO] SolveP: 132.252 [ms]
time step continuity errors : sum local = 1.036387707652045e-09, global = 8.539466300723705e-12, cumulative = -1.356903610388947e-09
[INFO] PIMPLEStep: 1132.707 [ms]
PIMPLE: iteration 2
velocityDampingConstraint velocityDamping damped 0 (0%) of cells, with max limit 300
[INFO] MatrixAssemblyU: 746.9059999999999 [ms]
smoothSolver:  Solving for Ux, Initial residual = 7.105091059645473e-05, Final residual = 4.358049627157664e-07, No Iterations 1
smoothSolver:  Solving for Uy, Initial residual = 0.0002212620666959398, Final residual = 1.193420432130461e-06, No Iterations 1
smoothSolver:  Solving for Uz, Initial residual = 8.589777005833469e-05, Final residual = 4.692994327063452e-07, No Iterations 1
[INFO] MomentumPredictor: 93.241 [ms]
[INFO] MatrixAssemblyPI: 70.779 [ms]
[INFO] MatrixAssemblyPII: 48.618 [ms]
DICPCG:  Solving for p, Initial residual = 0.09127660716252117, Final residual = 0.0009101760165005216, No Iterations 14
[INFO] SolveP: 141.984 [ms]
time step continuity errors : sum local = 1.168291652531505e-09, global = 2.182218835637777e-11, cumulative = -1.335081422032569e-09
[INFO] PIMPLEStep: 1134.257 [ms]
PIMPLE: iteration 3
velocityDampingConstraint velocityDamping damped 0 (0%) of cells, with max limit 300
[INFO] MatrixAssemblyU: 746.989 [ms]
smoothSolver:  Solving for Ux, Initial residual = 1.846279756967324e-05, Final residual = 1.227247497639151e-07, No Iterations 1
smoothSolver:  Solving for Uy, Initial residual = 5.425873283174369e-05, Final residual = 3.331536880864686e-07, No Iterations 1
smoothSolver:  Solving for Uz, Initial residual = 2.137224862274453e-05, Final residual = 1.273627683951599e-07, No Iterations 1
[INFO] MomentumPredictor: 92.776 [ms]
[INFO] MatrixAssemblyPI: 70.86799999999999 [ms]
[INFO] MatrixAssemblyPII: 48.763 [ms]
DICPCG:  Solving for p, Initial residual = 0.0673113002618385, Final residual = 0.0006706216661677996, No Iterations 16
[INFO] SolveP: 159.747 [ms]
time step continuity errors : sum local = 8.367389618865038e-10, global = 2.601142978314133e-11, cumulative = -1.309069992249428e-09
[INFO] PIMPLEStep: 1151.211 [ms]
PIMPLE: iteration 4
velocityDampingConstraint velocityDamping damped 0 (0%) of cells, with max limit 300
[INFO] MatrixAssemblyU: 744.284 [ms]
smoothSolver:  Solving for Ux, Initial residual = 5.973873394699072e-06, Final residual = 4.012216493792466e-08, No Iterations 1
smoothSolver:  Solving for Uy, Initial residual = 1.673672073258075e-05, Final residual = 1.038799225060448e-07, No Iterations 1
smoothSolver:  Solving for Uz, Initial residual = 6.323527873989888e-06, Final residual = 4.020394523065892e-08, No Iterations 1
[INFO] MomentumPredictor: 92.649 [ms]
[INFO] MatrixAssemblyPI: 70.747 [ms]
[INFO] MatrixAssemblyPII: 48.613 [ms]
DICPCG:  Solving for p, Initial residual = 0.04289523249780486, Final residual = 0.0004119068959277989, No Iterations 24
[INFO] SolveP: 233.189 [ms]
time step continuity errors : sum local = 5.04997319939725e-10, global = 2.749412497507168e-11, cumulative = -1.281575867274356e-09
[INFO] PIMPLEStep: 1221.502 [ms]
PIMPLE: iteration 5
velocityDampingConstraint velocityDamping damped 0 (0%) of cells, with max limit 300
[INFO] MatrixAssemblyU: 746.048 [ms]
smoothSolver:  Solving for Ux, Initial residual = 3.495557505013025e-06, Final residual = 2.255945703531642e-08, No Iterations 1
smoothSolver:  Solving for Uy, Initial residual = 1.097291661346396e-05, Final residual = 5.403809474306942e-08, No Iterations 1
smoothSolver:  Solving for Uz, Initial residual = 4.118395796581463e-06, Final residual = 2.20003080681037e-08, No Iterations 1
[INFO] MomentumPredictor: 93.804 [ms]
[INFO] MatrixAssemblyPI: 70.861 [ms]
[INFO] MatrixAssemblyPII: 48.698 [ms]
DICPCG:  Solving for p, Initial residual = 0.02573521728727741, Final residual = 0.0002560272426095129, No Iterations 69
[INFO] SolveP: 643.761 [ms]
time step continuity errors : sum local = 3.106210546429182e-10, global = 2.648984858447235e-11, cumulative = -1.255086018689884e-09
[INFO] PIMPLEStep: 1635.228 [ms]
PIMPLE: iteration 6
velocityDampingConstraint velocityDamping damped 0 (0%) of cells, with max limit 300
[INFO] MatrixAssemblyU: 746.086 [ms]
smoothSolver:  Solving for Ux, Initial residual = 2.97135867444125e-06, Final residual = 1.736289782407239e-08, No Iterations 1
smoothSolver:  Solving for Uy, Initial residual = 7.888196092228665e-06, Final residual = 3.762426371066092e-08, No Iterations 1
smoothSolver:  Solving for Uz, Initial residual = 3.017651811925839e-06, Final residual = 1.479718792181507e-08, No Iterations 1
[INFO] MomentumPredictor: 93.086 [ms]
[INFO] MatrixAssemblyPI: 70.387 [ms]
[INFO] MatrixAssemblyPII: 48.659 [ms]
DICPCG:  Solving for p, Initial residual = 0.01505001258358892, Final residual = 0.0001487809530770079, No Iterations 74
[INFO] SolveP: 686.2190000000001 [ms]
time step continuity errors : sum local = 1.793808019886261e-10, global = 2.566043200956718e-11, cumulative = -1.229425586680317e-09
[INFO] PIMPLEStep: 1676.618 [ms]
PIMPLE: iteration 7
velocityDampingConstraint velocityDamping damped 0 (0%) of cells, with max limit 300
[INFO] MatrixAssemblyU: 746.347 [ms]
smoothSolver:  Solving for Ux, Initial residual = 2.29093899863628e-06, Final residual = 1.176917199793201e-08, No Iterations 1
smoothSolver:  Solving for Uy, Initial residual = 4.985355794433302e-06, Final residual = 2.468827309709634e-08, No Iterations 1
smoothSolver:  Solving for Uz, Initial residual = 1.893392505555057e-06, Final residual = 8.695527147806687e-09, No Iterations 1
[INFO] MomentumPredictor: 93.113 [ms]
[INFO] MatrixAssemblyPI: 71.358 [ms]
[INFO] MatrixAssemblyPII: 48.588 [ms]
DICPCG:  Solving for p, Initial residual = 0.008698155952450192, Final residual = 8.609300713293867e-05, No Iterations 307
[INFO] SolveP: 2819.324 [ms]
time step continuity errors : sum local = 1.034095019703028e-10, global = -5.270378004719797e-13, cumulative = -1.229952624480789e-09
[INFO] PIMPLEStep: 3811.477 [ms]
PIMPLE: iteration 8
velocityDampingConstraint velocityDamping damped 0 (0%) of cells, with max limit 300
[INFO] MatrixAssemblyU: 745.323 [ms]
smoothSolver:  Solving for Ux, Initial residual = 4.277490941057331e-06, Final residual = 8.20221150889113e-09, No Iterations 1
smoothSolver:  Solving for Uy, Initial residual = 3.079737066708961e-06, Final residual = 1.521914598889038e-08, No Iterations 1
smoothSolver:  Solving for Uz, Initial residual = 1.291083359921735e-06, Final residual = 5.715785975191521e-09, No Iterations 1
[INFO] MomentumPredictor: 93.038 [ms]
[INFO] MatrixAssemblyPI: 71.27 [ms]
[INFO] MatrixAssemblyPII: 48.421 [ms]
DICPCG:  Solving for p, Initial residual = 0.005035315567149161, Final residual = 4.976358420554789e-05, No Iterations 10
[INFO] SolveP: 104.968 [ms]
time step continuity errors : sum local = 5.949402130834794e-11, global = 1.2435855147045e-11, cumulative = -1.217516769333744e-09
[INFO] PIMPLEStep: 1095.213 [ms]
PIMPLE: iteration 9
velocityDampingConstraint velocityDamping damped 0 (0%) of cells, with max limit 300
[INFO] MatrixAssemblyU: 745.734 [ms]
smoothSolver:  Solving for Ux, Initial residual = 1.360633485862366e-06, Final residual = 3.520740152221006e-09, No Iterations 1
smoothSolver:  Solving for Uy, Initial residual = 1.243300578491608e-06, Final residual = 6.817901774632707e-09, No Iterations 1
smoothSolver:  Solving for Uz, Initial residual = 5.116610514087993e-07, Final residual = 2.58214908572062e-09, No Iterations 1
[INFO] MomentumPredictor: 93.212 [ms]
[INFO] MatrixAssemblyPI: 70.696 [ms]
[INFO] MatrixAssemblyPII: 48.809 [ms]
DICPCG:  Solving for p, Initial residual = 0.002897653339309643, Final residual = 2.881987399887089e-05, No Iterations 321
[INFO] SolveP: 2938.872 [ms]
time step continuity errors : sum local = 3.441359234305439e-11, global = 1.105660817229035e-13, cumulative = -1.217406203252021e-09
[INFO] PIMPLEStep: 3931.005 [ms]
PIMPLE: iteration 10
velocityDampingConstraint velocityDamping damped 0 (0%) of cells, with max limit 300
[INFO] MatrixAssemblyU: 747.25 [ms]
smoothSolver:  Solving for Ux, Initial residual = 2.0321170413235e-06, Final residual = 2.933104345677487e-09, No Iterations 1
smoothSolver:  Solving for Uy, Initial residual = 9.539871479066922e-07, Final residual = 5.015607972295898e-09, No Iterations 1
smoothSolver:  Solving for Uz, Initial residual = 4.573256533642348e-07, Final residual = 2.090911543047046e-09, No Iterations 1
[INFO] MomentumPredictor: 93.11 [ms]
[INFO] MatrixAssemblyPI: 70.91 [ms]
[INFO] MatrixAssemblyPII: 48.693 [ms]
DICPCG:  Solving for p, Initial residual = 0.001688324802591825, Final residual = 1.660880607985543e-05, No Iterations 312
[INFO] SolveP: 2867.182 [ms]
time step continuity errors : sum local = 1.979502395839118e-11, global = -3.825888255858528e-14, cumulative = -1.217444462134579e-09
[INFO] PIMPLEStep: 3859.06 [ms]
PIMPLE: iteration 11
velocityDampingConstraint velocityDamping damped 0 (0%) of cells, with max limit 300
[INFO] MatrixAssemblyU: 746.454 [ms]
smoothSolver:  Solving for Ux, Initial residual = 1.374041891971665e-06, Final residual = 1.894075065447853e-09, No Iterations 1
smoothSolver:  Solving for Uy, Initial residual = 5.684299350450461e-07, Final residual = 2.983230284722159e-09, No Iterations 1
smoothSolver:  Solving for Uz, Initial residual = 2.902017424302145e-07, Final residual = 1.289085592998496e-09, No Iterations 1
[INFO] MomentumPredictor: 92.732 [ms]
[INFO] MatrixAssemblyPI: 70.568 [ms]
[INFO] MatrixAssemblyPII: 48.66 [ms]
DICPCG:  Solving for p, Initial residual = 0.0009952256721443905, Final residual = 9.737016396195404e-06, No Iterations 8
[INFO] SolveP: 86.83199999999999 [ms]
time step continuity errors : sum local = 1.159382879420646e-11, global = 2.058902456201164e-12, cumulative = -1.215385559678378e-09
[INFO] PIMPLEStep: 1077.294 [ms]
PIMPLE: iteration 12
velocityDampingConstraint velocityDamping damped 0 (0%) of cells, with max limit 300
[INFO] MatrixAssemblyU: 745.323 [ms]
smoothSolver:  Solving for Ux, Initial residual = 4.263532758002018e-07, Final residual = 8.004532145719669e-10, No Iterations 1
smoothSolver:  Solving for Uy, Initial residual = 2.249200776373837e-07, Final residual = 1.387661915076609e-09, No Iterations 1
smoothSolver:  Solving for Uz, Initial residual = 1.07885206215632e-07, Final residual = 5.661892538529078e-10, No Iterations 1
[INFO] MomentumPredictor: 93.119 [ms]
[INFO] MatrixAssemblyPI: 70.789 [ms]
[INFO] MatrixAssemblyPII: 48.568 [ms]
DICPCG:  Solving for p, Initial residual = 0.0005900437343492569, Final residual = 5.861476679593406e-06, No Iterations 302
[INFO] SolveP: 2770.945 [ms]
time step continuity errors : sum local = 6.977561003316953e-12, global = -6.238572925229399e-14, cumulative = -1.21544794540763e-09
[INFO] PIMPLEStep: 3761.05 [ms]
PIMPLE: iteration 13
velocityDampingConstraint velocityDamping damped 0 (0%) of cells, with max limit 300
[INFO] MatrixAssemblyU: 748.7670000000001 [ms]
smoothSolver:  Solving for Ux, Initial residual = 3.624519732087758e-07, Final residual = 6.058981491007535e-10, No Iterations 1
smoothSolver:  Solving for Uy, Initial residual = 1.752685664832124e-07, Final residual = 1.025398863715757e-09, No Iterations 1
smoothSolver:  Solving for Uz, Initial residual = 8.142647540017092e-08, Final residual = 4.07925810338612e-10, No Iterations 1
[INFO] MomentumPredictor: 92.768 [ms]
[INFO] MatrixAssemblyPI: 71.111 [ms]
[INFO] MatrixAssemblyPII: 48.806 [ms]
DICPCG:  Solving for p, Initial residual = 0.0003550701959283623, Final residual = 3.372772211685576e-06, No Iterations 14
[INFO] SolveP: 141.45 [ms]
time step continuity errors : sum local = 4.013680883285676e-12, global = 7.018394261119575e-13, cumulative = -1.214746105981519e-09
DILUPBiCGStab:  Solving for omega, Initial residual = 5.189333532342515e-05, Final residual = 9.988990029920633e-10, No Iterations 1
DILUPBiCGStab:  Solving for k, Initial residual = 0.01256999782010714, Final residual = 8.074114125862042e-09, No Iterations 1
[INFO] PIMPLEStep: 1715.904 [ms]
PIMPLE: converged in 13 iterations
[INFO] TimeStep: 27224.974 [ms]
ExecutionTime = 199.56 s  ClockTime = 201 s

Courant Number mean: 0.004346525307641663 max: 12.166131706375
Time = 3e-05

PIMPLE: iteration 1
velocityDampingConstraint velocityDamping damped 0 (0%) of cells, with max limit 300
[INFO] MatrixAssemblyU: 747.754 [ms]
smoothSolver:  Solving for Ux, Initial residual = 0.0001769684100932001, Final residual = 1.154866693695379e-06, No Iterations 1
smoothSolver:  Solving for Uy, Initial residual = 0.0005808142819412888, Final residual = 3.139198061244467e-06, No Iterations 1
smoothSolver:  Solving for Uz, Initial residual = 0.0002253711410399864, Final residual = 1.227727102446066e-06, No Iterations 1
[INFO] MomentumPredictor: 93.2 [ms]
[INFO] MatrixAssemblyPI: 74.63800000000001 [ms]
[INFO] MatrixAssemblyPII: 48.616 [ms]
DICPCG:  Solving for p, Initial residual = 0.05438959226049671, Final residual = 0.0005334811614960392, No Iterations 7
[INFO] SolveP: 77.848 [ms]
time step continuity errors : sum local = 6.12219040429706e-10, global = 2.760295547593674e-12, cumulative = -1.211985810433925e-09
[INFO] PIMPLEStep: 1074.477 [ms]
PIMPLE: iteration 2
velocityDampingConstraint velocityDamping damped 0 (0%) of cells, with max limit 300
[INFO] MatrixAssemblyU: 746.624 [ms]
smoothSolver:  Solving for Ux, Initial residual = 5.294361787495632e-05, Final residual = 3.581398771136068e-07, No Iterations 1
smoothSolver:  Solving for Uy, Initial residual = 0.0001736696352397213, Final residual = 9.718624694187014e-07, No Iterations 1
smoothSolver:  Solving for Uz, Initial residual = 6.747288056361312e-05, Final residual = 3.771775254787137e-07, No Iterations 1
[INFO] MomentumPredictor: 93.21599999999999 [ms]
[INFO] MatrixAssemblyPI: 70.687 [ms]
[INFO] MatrixAssemblyPII: 48.67 [ms]
DICPCG:  Solving for p, Initial residual = 0.06983131234156768, Final residual = 0.0006396816582540821, No Iterations 11
[INFO] SolveP: 114.047 [ms]
time step continuity errors : sum local = 7.1010832129019e-10, global = 9.857479429246206e-12, cumulative = -1.202128331004679e-09
[INFO] PIMPLEStep: 1105.385 [ms]
PIMPLE: iteration 3
velocityDampingConstraint velocityDamping damped 0 (0%) of cells, with max limit 300
[INFO] MatrixAssemblyU: 745.4059999999999 [ms]
smoothSolver:  Solving for Ux, Initial residual = 1.493437784507076e-05, Final residual = 1.080125612980646e-07, No Iterations 1
smoothSolver:  Solving for Uy, Initial residual = 4.69752662143286e-05, Final residual = 2.924729928650363e-07, No Iterations 1
smoothSolver:  Solving for Uz, Initial residual = 1.819733025170845e-05, Final residual = 1.104175025379146e-07, No Iterations 1
[INFO] MomentumPredictor: 92.809 [ms]
[INFO] MatrixAssemblyPI: 71.006 [ms]
[INFO] MatrixAssemblyPII: 48.711 [ms]
DICPCG:  Solving for p, Initial residual = 0.05279158538367926, Final residual = 0.0005084964312136685, No Iterations 13
[INFO] SolveP: 133.107 [ms]
time step continuity errors : sum local = 5.521797926614516e-10, global = 1.191741415210866e-11, cumulative = -1.19021091685257e-09
[INFO] PIMPLEStep: 1123.411 [ms]
PIMPLE: iteration 4
velocityDampingConstraint velocityDamping damped 0 (0%) of cells, with max limit 300
[INFO] MatrixAssemblyU: 747.451 [ms]
smoothSolver:  Solving for Ux, Initial residual = 4.352425504367513e-06, Final residual = 3.45616207804276e-08, No Iterations 1
smoothSolver:  Solving for Uy, Initial residual = 1.213386723088384e-05, Final residual = 9.117414422617406e-08, No Iterations 1
smoothSolver:  Solving for Uz, Initial residual = 4.71521995733236e-06, Final residual = 3.375717410329407e-08, No Iterations 1
[INFO] MomentumPredictor: 92.873 [ms]
[INFO] MatrixAssemblyPI: 70.645 [ms]
[INFO] MatrixAssemblyPII: 48.616 [ms]
DICPCG:  Solving for p, Initial residual = 0.03401337571013976, Final residual = 0.0003322164630017931, No Iterations 20
[INFO] SolveP: 196.353 [ms]
time step continuity errors : sum local = 3.558727558007948e-10, global = 1.243788702912314e-11, cumulative = -1.177773029823447e-09
[INFO] PIMPLEStep: 1187.937 [ms]
PIMPLE: iteration 5
velocityDampingConstraint velocityDamping damped 0 (0%) of cells, with max limit 300
[INFO] MatrixAssemblyU: 744.556 [ms]
smoothSolver:  Solving for Ux, Initial residual = 1.953449699117801e-06, Final residual = 1.466700245514219e-08, No Iterations 1
smoothSolver:  Solving for Uy, Initial residual = 5.544848560071838e-06, Final residual = 3.736554654460605e-08, No Iterations 1
smoothSolver:  Solving for Uz, Initial residual = 2.259209329577095e-06, Final residual = 1.452471683443506e-08, No Iterations 1
[INFO] MomentumPredictor: 93.809 [ms]
[INFO] MatrixAssemblyPI: 70.645 [ms]
[INFO] MatrixAssemblyPII: 48.68 [ms]
DICPCG:  Solving for p, Initial residual = 0.02046293865156343, Final residual = 0.0002018174047919784, No Iterations 51
[INFO] SolveP: 478.78 [ms]
time step continuity errors : sum local = 2.144430970027604e-10, global = 1.215678218200647e-11, cumulative = -1.16561624764144e-09
[INFO] PIMPLEStep: 1468.545 [ms]
PIMPLE: iteration 6
velocityDampingConstraint velocityDamping damped 0 (0%) of cells, with max limit 300
[INFO] MatrixAssemblyU: 746.074 [ms]
smoothSolver:  Solving for Ux, Initial residual = 1.284112417916889e-06, Final residual = 9.207195304234589e-09, No Iterations 1
smoothSolver:  Solving for Uy, Initial residual = 3.830996218064384e-06, Final residual = 2.251687576093947e-08, No Iterations 1
smoothSolver:  Solving for Uz, Initial residual = 1.554435632450867e-06, Final residual = 8.522778456439508e-09, No Iterations 1
[INFO] MomentumPredictor: 92.395 [ms]
[INFO] MatrixAssemblyPI: 71.07899999999999 [ms]
[INFO] MatrixAssemblyPII: 48.697 [ms]
DICPCG:  Solving for p, Initial residual = 0.01195750146546189, Final residual = 0.0001188611682210029, No Iterations 61
[INFO] SolveP: 573.533 [ms]
time step continuity errors : sum local = 1.256958462933253e-10, global = 1.177429990354015e-11, cumulative = -1.1538419477379e-09
[INFO] PIMPLEStep: 1563.683 [ms]
PIMPLE: iteration 7
velocityDampingConstraint velocityDamping damped 0 (0%) of cells, with max limit 300
[INFO] MatrixAssemblyU: 744.071 [ms]
smoothSolver:  Solving for Ux, Initial residual = 1.064085673395267e-06, Final residual = 6.416044002770972e-09, No Iterations 1
smoothSolver:  Solving for Uy, Initial residual = 2.546667293810918e-06, Final residual = 1.49436324805286e-08, No Iterations 1
smoothSolver:  Solving for Uz, Initial residual = 9.954594822206748e-07, Final residual = 5.221434052558032e-09, No Iterations 1
[INFO] MomentumPredictor: 93.369 [ms]
[INFO] MatrixAssemblyPI: 70.973 [ms]
[INFO] MatrixAssemblyPII: 48.726 [ms]
DICPCG:  Solving for p, Initial residual = 0.006902602077868001, Final residual = 6.764681520715534e-05, No Iterations 8
[INFO] SolveP: 86.907 [ms]
time step continuity errors : sum local = 7.133524806524876e-11, global = 1.21052517683873e-11, cumulative = -1.141736695969513e-09
[INFO] PIMPLEStep: 1076.232 [ms]
PIMPLE: iteration 8
velocityDampingConstraint velocityDamping damped 0 (0%) of cells, with max limit 300
[INFO] MatrixAssemblyU: 747.164 [ms]
smoothSolver:  Solving for Ux, Initial residual = 4.12365746901614e-07, Final residual = 2.985733889393125e-09, No Iterations 1
smoothSolver:  Solving for Uy, Initial residual = 1.15781913062442e-06, Final residual = 6.957178204773771e-09, No Iterations 1
smoothSolver:  Solving for Uz, Initial residual = 4.570925008393793e-07, Final residual = 2.522029997113177e-09, No Iterations 1
[INFO] MomentumPredictor: 92.47 [ms]
[INFO] MatrixAssemblyPI: 70.649 [ms]
[INFO] MatrixAssemblyPII: 48.609 [ms]
DICPCG:  Solving for p, Initial residual = 0.003979186338525171, Final residual = 3.932775717237042e-05, No Iterations 335
[INFO] SolveP: 3073.621 [ms]
time step continuity errors : sum local = 4.140654910812461e-11, global = -2.747406847072139e-13, cumulative = -1.14201143665422e-09
[INFO] PIMPLEStep: 4065.79 [ms]
PIMPLE: iteration 9
velocityDampingConstraint velocityDamping damped 0 (0%) of cells, with max limit 300
[INFO] MatrixAssemblyU: 748.533 [ms]
smoothSolver:  Solving for Ux, Initial residual = 2.005564322564451e-06, Final residual = 3.221761022491099e-09, No Iterations 1
smoothSolver:  Solving for Uy, Initial residual = 1.104066917831826e-06, Final residual = 5.709778550400609e-09, No Iterations 1
smoothSolver:  Solving for Uz, Initial residual = 5.453434604480188e-07, Final residual = 2.259838729792346e-09, No Iterations 1
[INFO] MomentumPredictor: 92.83799999999999 [ms]
[INFO] MatrixAssemblyPI: 70.84 [ms]
[INFO] MatrixAssemblyPII: 48.708 [ms]
DICPCG:  Solving for p, Initial residual = 0.002335806330945021, Final residual = 2.309806777235439e-05, No Iterations 331
[INFO] SolveP: 3041.441 [ms]
time step continuity errors : sum local = 2.426410053951381e-11, global = -9.875076869422944e-14, cumulative = -1.142110187422915e-09
[INFO] PIMPLEStep: 4034.895 [ms]
PIMPLE: iteration 10
velocityDampingConstraint velocityDamping damped 0 (0%) of cells, with max limit 300
[INFO] MatrixAssemblyU: 746.148 [ms]
smoothSolver:  Solving for Ux, Initial residual = 1.519272430058584e-06, Final residual = 2.242410856042213e-09, No Iterations 1
smoothSolver:  Solving for Uy, Initial residual = 7.142739419125029e-07, Final residual = 3.589705261837119e-09, No Iterations 1
smoothSolver:  Solving for Uz, Initial residual = 3.707623351165952e-07, Final residual = 1.471483156207737e-09, No Iterations 1
[INFO] MomentumPredictor: 92.935 [ms]
[INFO] MatrixAssemblyPI: 71.001 [ms]
[INFO] MatrixAssemblyPII: 48.716 [ms]
DICPCG:  Solving for p, Initial residual = 0.00137938773285184, Final residual = 1.34567274472838e-05, No Iterations 7
[INFO] SolveP: 77.63800000000001 [ms]
time step continuity errors : sum local = 1.411933177048039e-11, global = 2.263423050287582e-12, cumulative = -1.139846764372627e-09
[INFO] PIMPLEStep: 1068.635 [ms]
PIMPLE: iteration 11
velocityDampingConstraint velocityDamping damped 0 (0%) of cells, with max limit 300
[INFO] MatrixAssemblyU: 748.023 [ms]
smoothSolver:  Solving for Ux, Initial residual = 4.690180680765815e-07, Final residual = 8.939538163136645e-10, No Iterations 1
smoothSolver:  Solving for Uy, Initial residual = 2.688911542805088e-07, Final residual = 1.556668677817421e-09, No Iterations 1
smoothSolver:  Solving for Uz, Initial residual = 1.323107853438251e-07, Final residual = 6.216249413180463e-10, No Iterations 1
[INFO] MomentumPredictor: 93.562 [ms]
[INFO] MatrixAssemblyPI: 70.54600000000001 [ms]
[INFO] MatrixAssemblyPII: 48.79 [ms]
DICPCG:  Solving for p, Initial residual = 0.0008146852692332401, Final residual = 8.073266222584561e-06, No Iterations 313
[INFO] SolveP: 2886.698 [ms]
time step continuity errors : sum local = 8.468206220443358e-12, global = 2.227005448576623e-14, cumulative = -1.139824494318141e-09
[INFO] PIMPLEStep: 3879.613 [ms]
PIMPLE: iteration 12
velocityDampingConstraint velocityDamping damped 0 (0%) of cells, with max limit 300
[INFO] MatrixAssemblyU: 746.647 [ms]
smoothSolver:  Solving for Ux, Initial residual = 4.423197120336069e-07, Final residual = 7.301314089169486e-10, No Iterations 1
smoothSolver:  Solving for Uy, Initial residual = 2.304275904725556e-07, Final residual = 1.288898291759695e-09, No Iterations 1
[...]
smoothSolver:  Solving for Uy, Initial residual = 1.181949961244027e-06, Final residual = 1.240160431566228e-08, No Iterations 1
smoothSolver:  Solving for Uz, Initial residual = 4.431440047735856e-07, Final residual = 4.158135893751688e-09, No Iterations 1
[INFO] MomentumPredictor: 93.58 [ms]
[INFO] MatrixAssemblyPI: 71.161 [ms]
[INFO] MatrixAssemblyPII: 48.874 [ms]
DICPCG:  Solving for p, Initial residual = 0.003270049232572812, Final residual = 3.239837139155072e-05, No Iterations 35
[INFO] SolveP: 335.722 [ms]
time step continuity errors : sum local = 9.18673411857302e-12, global = 1.971063097741823e-13, cumulative = -1.007021840334792e-09
[INFO] PIMPLEStep: 1323.322 [ms]
PIMPLE: iteration 6
velocityDampingConstraint velocityDamping damped 0 (0%) of cells, with max limit 300
[INFO] MatrixAssemblyU: 744.758 [ms]
smoothSolver:  Solving for Ux, Initial residual = 1.761844783544406e-07, Final residual = 1.536102582729421e-09, No Iterations 1
smoothSolver:  Solving for Uy, Initial residual = 3.808123796940346e-07, Final residual = 4.265644074481742e-09, No Iterations 1
smoothSolver:  Solving for Uz, Initial residual = 1.416919372443932e-07, Final residual = 1.418043950716822e-09, No Iterations 1
[INFO] MomentumPredictor: 93.75700000000001 [ms]
[INFO] MatrixAssemblyPI: 71.136 [ms]
[INFO] MatrixAssemblyPII: 49.794 [ms]
DICPCG:  Solving for p, Initial residual = 0.002074475302836622, Final residual = 2.002173740693713e-05, No Iterations 35
[INFO] SolveP: 334.93 [ms]
time step continuity errors : sum local = 5.673212794756182e-12, global = 1.957817960609005e-13, cumulative = -1.006826058538732e-09
[INFO] PIMPLEStep: 1325.064 [ms]
PIMPLE: iteration 7
velocityDampingConstraint velocityDamping damped 0 (0%) of cells, with max limit 300
[INFO] MatrixAssemblyU: 741.441 [ms]
smoothSolver:  Solving for Ux, Initial residual = 6.155014072898309e-08, Final residual = 5.928733990743986e-10, No Iterations 1
smoothSolver:  Solving for Uy, Initial residual = 1.354121680896555e-07, Final residual = 1.616095876110918e-09, No Iterations 1
smoothSolver:  Solving for Uz, Initial residual = 5.029334943175255e-08, Final residual = 5.305211418271235e-10, No Iterations 1
[INFO] MomentumPredictor: 93.79600000000001 [ms]
[INFO] MatrixAssemblyPI: 70.78 [ms]
[INFO] MatrixAssemblyPII: 48.783 [ms]
DICPCG:  Solving for p, Initial residual = 0.001298109065006845, Final residual = 1.216495336876174e-05, No Iterations 34
[INFO] SolveP: 325.857 [ms]
time step continuity errors : sum local = 3.44547138866619e-12, global = 1.945631764953697e-13, cumulative = -1.006631495362236e-09
[INFO] PIMPLEStep: 1312.815 [ms]
PIMPLE: iteration 8
velocityDampingConstraint velocityDamping damped 0 (0%) of cells, with max limit 300
[INFO] MatrixAssemblyU: 741.34 [ms]
smoothSolver:  Solving for Ux, Initial residual = 2.720131257611506e-08, Final residual = 2.699790301855273e-10, No Iterations 1
smoothSolver:  Solving for Uy, Initial residual = 6.170969428698926e-08, Final residual = 7.537593292937257e-10, No Iterations 1
smoothSolver:  Solving for Uz, Initial residual = 2.363115943776585e-08, Final residual = 2.430684643531805e-10, No Iterations 1
[INFO] MomentumPredictor: 93.76300000000001 [ms]
[INFO] MatrixAssemblyPI: 71.10299999999999 [ms]
[INFO] MatrixAssemblyPII: 48.807 [ms]
DICPCG:  Solving for p, Initial residual = 0.0008082614716740023, Final residual = 7.648860836526138e-06, No Iterations 14
[INFO] SolveP: 142.146 [ms]
time step continuity errors : sum local = 2.165805742421541e-12, global = 1.955753530489876e-13, cumulative = -1.006435920009187e-09
[INFO] PIMPLEStep: 1129.129 [ms]
PIMPLE: iteration 9
velocityDampingConstraint velocityDamping damped 0 (0%) of cells, with max limit 300
[INFO] MatrixAssemblyU: 741.249 [ms]
smoothSolver:  Solving for Ux, Initial residual = 1.054897404472776e-08, Final residual = 1.268725258953887e-10, No Iterations 1
smoothSolver:  Solving for Uy, Initial residual = 2.829264814153524e-08, Final residual = 3.573016590309263e-10, No Iterations 1
smoothSolver:  Solving for Uz, Initial residual = 1.071764452931401e-08, Final residual = 1.176410309815943e-10, No Iterations 1
[INFO] MomentumPredictor: 93.633 [ms]
[INFO] MatrixAssemblyPI: 70.90000000000001 [ms]
[INFO] MatrixAssemblyPII: 48.802 [ms]
DICPCG:  Solving for p, Initial residual = 0.0005070603576236114, Final residual = 4.915148130619958e-06, No Iterations 43
[INFO] SolveP: 409.516 [ms]
time step continuity errors : sum local = 1.391519528948984e-12, global = 1.943698024422705e-13, cumulative = -1.006241550206745e-09
[INFO] PIMPLEStep: 1395.588 [ms]
PIMPLE: iteration 10
velocityDampingConstraint velocityDamping damped 0 (0%) of cells, with max limit 300
[INFO] MatrixAssemblyU: 741.21 [ms]
smoothSolver:  Solving for Ux, Initial residual = 1.11470311295035e-08, Final residual = 9.475693664048023e-11, No Iterations 1
smoothSolver:  Solving for Uy, Initial residual = 2.592487081671263e-08, Final residual = 2.696940440964138e-10, No Iterations 1
smoothSolver:  Solving for Uz, Initial residual = 9.754491819924096e-09, Final residual = 8.493057933068275e-11, No Iterations 1
[INFO] MomentumPredictor: 93.142 [ms]
[INFO] MatrixAssemblyPI: 70.896 [ms]
[INFO] MatrixAssemblyPII: 48.618 [ms]
DICPCG:  Solving for p, Initial residual = 0.0003228027608504453, Final residual = 3.208341074667373e-06, No Iterations 16
[INFO] SolveP: 160.724 [ms]
time step continuity errors : sum local = 9.082160183521406e-13, global = 1.948740818069117e-13, cumulative = -1.006046676124938e-09
[INFO] PIMPLEStep: 1146.509 [ms]
PIMPLE: iteration 11
velocityDampingConstraint velocityDamping damped 0 (0%) of cells, with max limit 300
[INFO] MatrixAssemblyU: 741.583 [ms]
smoothSolver:  Solving for Ux, Initial residual = 4.503328621146568e-09, Final residual = 5.377937844288629e-11, No Iterations 1
smoothSolver:  Solving for Uy, Initial residual = 1.172267848545341e-08, Final residual = 1.457394854864682e-10, No Iterations 1
smoothSolver:  Solving for Uz, Initial residual = 4.430833733356616e-09, Final residual = 4.898959651838755e-11, No Iterations 1
[INFO] MomentumPredictor: 93.81100000000001 [ms]
[INFO] MatrixAssemblyPI: 70.971 [ms]
[INFO] MatrixAssemblyPII: 48.671 [ms]
DICPCG:  Solving for p, Initial residual = 0.0002063581059502826, Final residual = 2.038931114325905e-06, No Iterations 311
[INFO] SolveP: 2871.936 [ms]
time step continuity errors : sum local = 5.771447527444029e-13, global = 8.45086606927905e-15, cumulative = -1.006038225258869e-09
[INFO] PIMPLEStep: 3860.114 [ms]
PIMPLE: iteration 12
velocityDampingConstraint velocityDamping damped 0 (0%) of cells, with max limit 300
[INFO] MatrixAssemblyU: 743.974 [ms]
smoothSolver:  Solving for Ux, Initial residual = 3.285270693868524e-08, Final residual = 7.111656727621237e-11, No Iterations 1
smoothSolver:  Solving for Uy, Initial residual = 1.457249706450904e-08, Final residual = 1.421181989137691e-10, No Iterations 1
smoothSolver:  Solving for Uz, Initial residual = 6.41209834590169e-09, Final residual = 4.465910047460894e-11, No Iterations 1
[INFO] MomentumPredictor: 93.161 [ms]
[INFO] MatrixAssemblyPI: 70.98699999999999 [ms]
[INFO] MatrixAssemblyPII: 48.775 [ms]
DICPCG:  Solving for p, Initial residual = 0.0001360027221062812, Final residual = 1.304814143937929e-06, No Iterations 53
[INFO] SolveP: 500.142 [ms]
time step continuity errors : sum local = 3.693652389780857e-13, global = 9.517142740083561e-14, cumulative = -1.005943053831468e-09
DILUPBiCGStab:  Solving for omega, Initial residual = 3.047913347881688e-05, Final residual = 1.561055610667121e-10, No Iterations 1
DILUPBiCGStab:  Solving for k, Initial residual = 9.609948006416965e-05, Final residual = 8.931541192346087e-10, No Iterations 1
[INFO] PIMPLEStep: 2062.967 [ms]
PIMPLE: converged in 12 iterations
[INFO] TimeStep: 18907.736 [ms]
ExecutionTime = 942.64 s  ClockTime = 948 s

Courant Number mean: 0.004345863770248657 max: 9.221977158700343
Time = 0.00025

PIMPLE: iteration 1
velocityDampingConstraint velocityDamping damped 0 (0%) of cells, with max limit 300
[INFO] MatrixAssemblyU: 745.405 [ms]
smoothSolver:  Solving for Ux, Initial residual = 6.261579499319806e-05, Final residual = 4.372349290854104e-07, No Iterations 1
smoothSolver:  Solving for Uy, Initial residual = 0.000134431094003901, Final residual = 1.194048479169545e-06, No Iterations 1
smoothSolver:  Solving for Uz, Initial residual = 5.077240703827554e-05, Final residual = 4.113656582426441e-07, No Iterations 1
[INFO] MomentumPredictor: 92.648 [ms]
[INFO] MatrixAssemblyPI: 74.289 [ms]
[INFO] MatrixAssemblyPII: 48.74 [ms]
DICPCG:  Solving for p, Initial residual = 0.002957379922185682, Final residual = 2.948936252824474e-05, No Iterations 84
[INFO] SolveP: 780.699 [ms]
time step continuity errors : sum local = 8.336901835049546e-12, global = 9.238782685617376e-14, cumulative = -1.005850666004612e-09
[INFO] PIMPLEStep: 1774.014 [ms]
PIMPLE: iteration 2
velocityDampingConstraint velocityDamping damped 0 (0%) of cells, with max limit 300
[INFO] MatrixAssemblyU: 740.976 [ms]
smoothSolver:  Solving for Ux, Initial residual = 1.892660003563712e-05, Final residual = 1.35354587506631e-07, No Iterations 1
smoothSolver:  Solving for Uy, Initial residual = 4.08851325350691e-05, Final residual = 3.734870225636332e-07, No Iterations 1
smoothSolver:  Solving for Uz, Initial residual = 1.543427036052451e-05, Final residual = 1.281895512054167e-07, No Iterations 1
[INFO] MomentumPredictor: 92.40300000000001 [ms]
[INFO] MatrixAssemblyPI: 70.819 [ms]
[INFO] MatrixAssemblyPII: 49.089 [ms]
DICPCG:  Solving for p, Initial residual = 0.007754973594905147, Final residual = 7.733750275862519e-05, No Iterations 12
[INFO] SolveP: 123.643 [ms]
time step continuity errors : sum local = 2.177706756539246e-11, global = 8.775528680448084e-14, cumulative = -1.005762910717807e-09
[INFO] PIMPLEStep: 1109.249 [ms]
PIMPLE: iteration 3
velocityDampingConstraint velocityDamping damped 0 (0%) of cells, with max limit 300
[INFO] MatrixAssemblyU: 740.249 [ms]
smoothSolver:  Solving for Ux, Initial residual = 5.747568349635102e-06, Final residual = 4.231954524532099e-08, No Iterations 1
smoothSolver:  Solving for Uy, Initial residual = 1.244406079517305e-05, Final residual = 1.177772198632176e-07, No Iterations 1
smoothSolver:  Solving for Uz, Initial residual = 4.693505397039055e-06, Final residual = 4.019916040539598e-08, No Iterations 1
[INFO] MomentumPredictor: 92.637 [ms]
[INFO] MatrixAssemblyPI: 70.974 [ms]
[INFO] MatrixAssemblyPII: 48.869 [ms]
DICPCG:  Solving for p, Initial residual = 0.006823618944720761, Final residual = 6.79971263755391e-05, No Iterations 19
[INFO] SolveP: 186.623 [ms]
time step continuity errors : sum local = 1.909353375787895e-11, global = 8.694552246583479e-14, cumulative = -1.005675965195342e-09
[INFO] PIMPLEStep: 1171.07 [ms]
PIMPLE: iteration 4
velocityDampingConstraint velocityDamping damped 0 (0%) of cells, with max limit 300
[INFO] MatrixAssemblyU: 742.3049999999999 [ms]
smoothSolver:  Solving for Ux, Initial residual = 1.754481670744842e-06, Final residual = 1.341923022959702e-08, No Iterations 1
smoothSolver:  Solving for Uy, Initial residual = 3.794633814641539e-06, Final residual = 3.762517748147335e-08, No Iterations 1
smoothSolver:  Solving for Uz, Initial residual = 1.429096015772765e-06, Final residual = 1.274658700161785e-08, No Iterations 1
[INFO] MomentumPredictor: 92.477 [ms]
[INFO] MatrixAssemblyPI: 70.994 [ms]
[INFO] MatrixAssemblyPII: 48.527 [ms]
DICPCG:  Solving for p, Initial residual = 0.004864478146591168, Final residual = 4.736971397957012e-05, No Iterations 33
[INFO] SolveP: 315.753 [ms]
time step continuity errors : sum local = 1.327722758407873e-11, global = 8.550940222047184e-14, cumulative = -1.005590455793121e-09
[INFO] PIMPLEStep: 1302.158 [ms]
PIMPLE: iteration 5
velocityDampingConstraint velocityDamping damped 0 (0%) of cells, with max limit 300
[INFO] MatrixAssemblyU: 741.405 [ms]
smoothSolver:  Solving for Ux, Initial residual = 5.448933736890969e-07, Final residual = 4.388450656483141e-09, No Iterations 1
smoothSolver:  Solving for Uy, Initial residual = 1.177845816428693e-06, Final residual = 1.234559971062108e-08, No Iterations 1
smoothSolver:  Solving for Uz, Initial residual = 4.410995063501895e-07, Final residual = 4.143304418579255e-09, No Iterations 1
[INFO] MomentumPredictor: 93.05 [ms]
[INFO] MatrixAssemblyPI: 70.748 [ms]
[INFO] MatrixAssemblyPII: 48.702 [ms]
DICPCG:  Solving for p, Initial residual = 0.00319640066566116, Final residual = 3.178886733792631e-05, No Iterations 37
[INFO] SolveP: 353.597 [ms]
time step continuity errors : sum local = 8.899972864201762e-12, global = 8.476144739583512e-14, cumulative = -1.005505694345725e-09
[INFO] PIMPLEStep: 1339.521 [ms]
PIMPLE: iteration 6
velocityDampingConstraint velocityDamping damped 0 (0%) of cells, with max limit 300
[INFO] MatrixAssemblyU: 742.846 [ms]
smoothSolver:  Solving for Ux, Initial residual = 1.748919026991631e-07, Final residual = 1.511577549005121e-09, No Iterations 1
smoothSolver:  Solving for Uy, Initial residual = 3.806476469034369e-07, Final residual = 4.224240358286178e-09, No Iterations 1
smoothSolver:  Solving for Uz, Initial residual = 1.411599839725734e-07, Final residual = 1.404457796336291e-09, No Iterations 1
[INFO] MomentumPredictor: 92.563 [ms]
[INFO] MatrixAssemblyPI: 71.122 [ms]
[INFO] MatrixAssemblyPII: 48.487 [ms]
DICPCG:  Solving for p, Initial residual = 0.00202202157537331, Final residual = 1.9485682140843e-05, No Iterations 37
[INFO] SolveP: 352.838 [ms]
time step continuity errors : sum local = 5.451594700447477e-12, global = 8.466495494091301e-14, cumulative = -1.005421029390784e-09
[INFO] PIMPLEStep: 1340.175 [ms]
PIMPLE: iteration 7
velocityDampingConstraint velocityDamping damped 0 (0%) of cells, with max limit 300
[INFO] MatrixAssemblyU: 741.53 [ms]
smoothSolver:  Solving for Ux, Initial residual = 6.072379709443803e-08, Final residual = 5.728101906988443e-10, No Iterations 1
smoothSolver:  Solving for Uy, Initial residual = 1.350376157007002e-07, Final residual = 1.585094528861649e-09, No Iterations 1
smoothSolver:  Solving for Uz, Initial residual = 4.985905184612035e-08, Final residual = 5.185263192799096e-10, No Iterations 1
[INFO] MomentumPredictor: 92.684 [ms]
[INFO] MatrixAssemblyPI: 70.761 [ms]
[INFO] MatrixAssemblyPII: 48.692 [ms]
DICPCG:  Solving for p, Initial residual = 0.001260715679300617, Final residual = 1.257825976341985e-05, No Iterations 17
[INFO] SolveP: 169.385 [ms]
time step continuity errors : sum local = 3.517568466435835e-12, global = 8.495817952037812e-14, cumulative = -1.005336071211264e-09
[INFO] PIMPLEStep: 1154.952 [ms]
PIMPLE: iteration 8
velocityDampingConstraint velocityDamping damped 0 (0%) of cells, with max limit 300
[INFO] MatrixAssemblyU: 741.261 [ms]
smoothSolver:  Solving for Ux, Initial residual = 2.179799273640321e-08, Final residual = 2.285402475887521e-10, No Iterations 1
smoothSolver:  Solving for Uy, Initial residual = 5.2579809866365e-08, Final residual = 6.565053587905139e-10, No Iterations 1
smoothSolver:  Solving for Uz, Initial residual = 1.916144803607039e-08, Final residual = 2.118730301651151e-10, No Iterations 1
[INFO] MomentumPredictor: 92.804 [ms]
[INFO] MatrixAssemblyPI: 70.752 [ms]
[INFO] MatrixAssemblyPII: 48.701 [ms]
DICPCG:  Solving for p, Initial residual = 0.0007815712123178044, Final residual = 7.810748151800767e-06, No Iterations 38
[INFO] SolveP: 363.432 [ms]
time step continuity errors : sum local = 2.183743299470721e-12, global = 8.627150765406657e-14, cumulative = -1.00524979970361e-09
[INFO] PIMPLEStep: 1350.02 [ms]
PIMPLE: iteration 9
velocityDampingConstraint velocityDamping damped 0 (0%) of cells, with max limit 300
[INFO] MatrixAssemblyU: 742.6799999999999 [ms]
smoothSolver:  Solving for Ux, Initial residual = 1.603627497406142e-08, Final residual = 1.326528055346315e-10, No Iterations 1
smoothSolver:  Solving for Uy, Initial residual = 3.780457559184847e-08, Final residual = 3.878558151461974e-10, No Iterations 1
smoothSolver:  Solving for Uz, Initial residual = 1.389121560141403e-08, Final residual = 1.223530966828344e-10, No Iterations 1
[INFO] MomentumPredictor: 92.65600000000001 [ms]
[INFO] MatrixAssemblyPI: 70.89400000000001 [ms]
[INFO] MatrixAssemblyPII: 48.733 [ms]
DICPCG:  Solving for p, Initial residual = 0.0004862058909163459, Final residual = 4.765245524370831e-06, No Iterations 43
[INFO] SolveP: 407.237 [ms]
time step continuity errors : sum local = 1.332062005676982e-12, global = 9.071241091278002e-14, cumulative = -1.005159087292697e-09
[INFO] PIMPLEStep: 1394.163 [ms]
PIMPLE: iteration 10
velocityDampingConstraint velocityDamping damped 0 (0%) of cells, with max limit 300
[INFO] MatrixAssemblyU: 741.321 [ms]
smoothSolver:  Solving for Ux, Initial residual = 1.303592159229698e-08, Final residual = 8.546538154151472e-11, No Iterations 1
smoothSolver:  Solving for Uy, Initial residual = 2.689539579538624e-08, Final residual = 2.488962314231932e-10, No Iterations 1
smoothSolver:  Solving for Uz, Initial residual = 9.873874731189743e-09, Final residual = 7.551280667381122e-11, No Iterations 1
[INFO] MomentumPredictor: 92.568 [ms]
[INFO] MatrixAssemblyPI: 70.76600000000001 [ms]
[INFO] MatrixAssemblyPII: 48.873 [ms]
DICPCG:  Solving for p, Initial residual = 0.0003082122396900958, Final residual = 3.029115107806318e-06, No Iterations 107
[INFO] SolveP: 995.817 [ms]
time step continuity errors : sum local = 8.466658240243959e-13, global = 1.156438569778654e-13, cumulative = -1.005043443435719e-09
[INFO] PIMPLEStep: 1981.242 [ms]
PIMPLE: iteration 11
velocityDampingConstraint velocityDamping damped 0 (0%) of cells, with max limit 300
[INFO] MatrixAssemblyU: 741.265 [ms]
smoothSolver:  Solving for Ux, Initial residual = 1.652254311079702e-08, Final residual = 6.581067862578811e-11, No Iterations 1
smoothSolver:  Solving for Uy, Initial residual = 2.164395050258907e-08, Final residual = 1.758526170766395e-10, No Iterations 1
smoothSolver:  Solving for Uz, Initial residual = 8.645499805400744e-09, Final residual = 5.599348548189823e-11, No Iterations 1
[INFO] MomentumPredictor: 92.89400000000001 [ms]
[INFO] MatrixAssemblyPI: 70.931 [ms]
[INFO] MatrixAssemblyPII: 48.952 [ms]
DICPCG:  Solving for p, Initial residual = 0.0001966797575130204, Final residual = 1.86546181706109e-06, No Iterations 15
[INFO] SolveP: 151.44 [ms]
time step continuity errors : sum local = 5.213855178545929e-13, global = 1.027519153971092e-13, cumulative = -1.004940691520322e-09
[INFO] PIMPLEStep: 1137.283 [ms]
PIMPLE: iteration 12
velocityDampingConstraint velocityDamping damped 0 (0%) of cells, with max limit 300
[INFO] MatrixAssemblyU: 740.265 [ms]
smoothSolver:  Solving for Ux, Initial residual = 5.587225584488873e-09, Final residual = 2.996291113535011e-11, No Iterations 1
smoothSolver:  Solving for Uy, Initial residual = 9.257333112209548e-09, Final residual = 8.155794889696373e-11, No Iterations 1
smoothSolver:  Solving for Uz, Initial residual = 3.425205273444072e-09, Final residual = 2.832764413807139e-11, No Iterations 1
[INFO] MomentumPredictor: 92.675 [ms]
[INFO] MatrixAssemblyPI: 70.898 [ms]
[INFO] MatrixAssemblyPII: 48.689 [ms]
DICPCG:  Solving for p, Initial residual = 0.0001263378978567454, Final residual = 1.237150284629621e-06, No Iterations 305
[INFO] SolveP: 2815.133 [ms]
time step continuity errors : sum local = 3.457625396644232e-13, global = 7.898160109667087e-16, cumulative = -1.004939901704311e-09
DILUPBiCGStab:  Solving for omega, Initial residual = 3.022855024648559e-05, Final residual = 1.565089437331077e-10, No Iterations 1
DILUPBiCGStab:  Solving for k, Initial residual = 9.05752263731411e-05, Final residual = 8.451532814346319e-10, No Iterations 1
[INFO] PIMPLEStep: 4377.425 [ms]
PIMPLE: converged in 12 iterations
[INFO] TimeStep: 19453.062 [ms]
ExecutionTime = 962.47 s  ClockTime = 968 s

End

Finalising parallel run
