/*---------------------------------------------------------------------------*\
| =========                 |                                                 |
| \\      /  F ield         | OpenFOAM: The Open Source CFD Toolbox           |
|  \\    /   O peration     | Version:  2306                                  |
|   \\  /    A nd           | Website:  www.openfoam.com                      |
|    \\/     M anipulation  |                                                 |
\*---------------------------------------------------------------------------*/
Build  : a6e826bd55-20230630 OPENFOAM=2306 version=v2306
Arch   : "LSB;label=32;scalar=64"
Exec   : simpleFoam -parallel -case /home/greole/data/code/exasim_project/micro_benchmarks/WindsorBody/workspace/afed86a366bac5eeef312fbc9cfde12a/case
Date   : Aug 02 2023
Time   : 13:41:33
Host   : nla-gpu2.ianm.kit.edu
PID    : 81182
I/O    : uncollated
Case   : /home/greole/data/code/exasim_project/micro_benchmarks/WindsorBody/workspace/afed86a366bac5eeef312fbc9cfde12a/case
nProcs : 8
Hosts  :
(
    (nla-gpu2.ianm.kit.edu 8)
)
Pstream initialized with:
    floatTransfer      : false
    nProcsSimpleSum    : 0
    nonBlockingExchange: 0 (tuning: 0)
    exchange algorithm : -1
    commsType          : nonBlocking
    polling iterations : 0
trapFpe: Floating point exception trapping enabled (FOAM_SIGFPE).
fileModificationChecking : Monitoring run-time modified files using timeStampMaster (fileModificationSkew 5, maxFileModificationPolls 20)
allowSystemOperations : Allowing user-supplied system call operations

// * * * * * * * * * * * * * * * * * * * * * * * * * * * * * * * * * * * * * //
Create time

--> FOAM Warning : 
    From void* Foam::dlLibraryTable::openLibrary(const Foam::fileName&, bool)
    in file db/dynamicLibrary/dlLibraryTable/dlLibraryTable.C at line 188
    Could not load "libpetscFoam.so"
libpetscFoam.so: cannot open shared object file: No such file or directory
Create mesh for time = 0


SIMPLE: convergence criteria
    field p	 tolerance 1e-08
    field U	 tolerance 1e-08
    field k	 tolerance 1e-08
    field omega	 tolerance 1e-08
    field nuTilda	 tolerance 1e-08

Reading field p

Reading field U

Reading/calculating face flux field phi

Selecting incompressible transport model Newtonian
Selecting turbulence model type RAS
Selecting RAS turbulence model SpalartAllmaras
Selecting patchDistMethod meshWave
ft2 term: inactive
RAS
{
    RASModel        SpalartAllmaras;
    turbulence      on;
    printCoeffs     on;
    sigmaNut        0.66666;
    kappa           0.41;
    Cb1             0.1355;
    Cb2             0.622;
    Cw2             0.3;
    Cw3             2;
    Cv1             7.1;
    Cs              0.3;
    ck              0.07000000000000001;
    ft2             false;
    Ct3             1.2;
    Ct4             0.5;
}

No MRF models present

Creating finite volume options from "system/fvOptions"

Selecting finite volume options type velocityDampingConstraint
    Source: velocityDamping
    - selecting all cells
    - selected 12614272 cell(s) with volume 55.65166103208902

Starting time loop

--> FOAM Warning : 
    From bool Foam::functionObjectList::read()
    in file db/functionObjects/functionObjectList/functionObjectList.C at line 1035
    Reading "system/controlDict" at line 2 to 41
    Entry 'lref' is not a dictionary
--> FOAM Warning : 
    From bool Foam::functionObjectList::read()
    in file db/functionObjects/functionObjectList/functionObjectList.C at line 1035
    Reading "system/controlDict" at line 2 to 41
    Entry 'Aref' is not a dictionary
--> FOAM Warning : 
    From bool Foam::functionObjectList::read()
    in file db/functionObjects/functionObjectList/functionObjectList.C at line 1035
    Reading "system/controlDict" at line 2 to 41
    Entry 'yawAngle' is not a dictionary
--> FOAM Warning : 
    From bool Foam::functionObjectList::read()
    in file db/functionObjects/functionObjectList/functionObjectList.C at line 1035
    Reading "system/controlDict" at line 2 to 41
    Entry 'lDomain' is not a dictionary
--> FOAM Warning : 
    From bool Foam::functionObjectList::read()
    in file db/functionObjects/functionObjectList/functionObjectList.C at line 1035
    Reading "system/controlDict" at line 2 to 41
    Entry 'bDomain' is not a dictionary
--> FOAM Warning : 
    From bool Foam::functionObjectList::read()
    in file db/functionObjects/functionObjectList/functionObjectList.C at line 1035
    Reading "system/controlDict" at line 2 to 41
    Entry 'hDomain' is not a dictionary
--> FOAM Warning : 
    From bool Foam::functionObjectList::read()
    in file db/functionObjects/functionObjectList/functionObjectList.C at line 1035
    Reading "system/controlDict" at line 2 to 41
    Entry 'xCenter' is not a dictionary
--> FOAM Warning : 
    From bool Foam::functionObjectList::read()
    in file db/functionObjects/functionObjectList/functionObjectList.C at line 1035
    Reading "system/controlDict" at line 2 to 41
    Entry 'yCenter' is not a dictionary
--> FOAM Warning : 
    From bool Foam::functionObjectList::read()
    in file db/functionObjects/functionObjectList/functionObjectList.C at line 1035
    Reading "system/controlDict" at line 2 to 41
    Entry 'zCenter' is not a dictionary
--> FOAM Warning : 
    From bool Foam::functionObjectList::read()
    in file db/functionObjects/functionObjectList/functionObjectList.C at line 1035
    Reading "system/controlDict" at line 2 to 41
    Entry 'inletPatch' is not a dictionary
--> FOAM Warning : 
    From bool Foam::functionObjectList::read()
    in file db/functionObjects/functionObjectList/functionObjectList.C at line 1035
    Reading "system/controlDict" at line 2 to 41
    Entry 'outletPatch' is not a dictionary
--> FOAM Warning : 
    From bool Foam::functionObjectList::read()
    in file db/functionObjects/functionObjectList/functionObjectList.C at line 1035
    Reading "system/controlDict" at line 2 to 41
    Entry 'wallPatches' is not a dictionary
--> FOAM Warning : 
    From bool Foam::functionObjectList::read()
    in file db/functionObjects/functionObjectList/functionObjectList.C at line 1035
    Reading "system/controlDict" at line 2 to 41
    Entry 'forcesWallPatches' is not a dictionary
--> FOAM Warning : 
    From bool Foam::functionObjectList::read()
    in file db/functionObjects/functionObjectList/functionObjectList.C at line 1035
    Reading "system/controlDict" at line 2 to 41
    Entry 'symmPatches' is not a dictionary
--> FOAM Warning : 
    From bool Foam::functionObjectList::read()
    in file db/functionObjects/functionObjectList/functionObjectList.C at line 1035
    Reading "system/controlDict" at line 2 to 41
    Entry 'Uinf' is not a dictionary
--> FOAM Warning : 
    From bool Foam::functionObjectList::read()
    in file db/functionObjects/functionObjectList/functionObjectList.C at line 1035
    Reading "system/controlDict" at line 2 to 41
    Entry 'UinfMag' is not a dictionary
--> FOAM Warning : 
    From bool Foam::functionObjectList::read()
    in file db/functionObjects/functionObjectList/functionObjectList.C at line 1035
    Reading "system/controlDict" at line 2 to 41
    Entry 'nu' is not a dictionary
--> FOAM Warning : 
    From bool Foam::functionObjectList::read()
    in file db/functionObjects/functionObjectList/functionObjectList.C at line 1035
    Reading "system/controlDict" at line 2 to 41
    Entry 'pref' is not a dictionary
--> FOAM Warning : 
    From bool Foam::functionObjectList::read()
    in file db/functionObjects/functionObjectList/functionObjectList.C at line 1035
    Reading "system/controlDict" at line 2 to 41
    Entry 'viscRatio' is not a dictionary
--> FOAM Warning : 
    From bool Foam::functionObjectList::read()
    in file db/functionObjects/functionObjectList/functionObjectList.C at line 1035
    Reading "system/controlDict" at line 2 to 41
    Entry 'Tu' is not a dictionary
--> FOAM Warning : 
    From bool Foam::functionObjectList::read()
    in file db/functionObjects/functionObjectList/functionObjectList.C at line 1035
    Reading "system/controlDict" at line 2 to 41
    Entry 'LESturbModel' is not a dictionary
--> FOAM Warning : 
    From bool Foam::functionObjectList::read()
    in file db/functionObjects/functionObjectList/functionObjectList.C at line 1035
    Reading "system/controlDict" at line 2 to 41
    Entry 'RASturbModel' is not a dictionary
--> FOAM Warning : 
    From bool Foam::functionObjectList::read()
    in file db/functionObjects/functionObjectList/functionObjectList.C at line 1035
    Reading "system/controlDict" at line 2 to 41
    Entry 'deltaTurb' is not a dictionary
--> FOAM Warning : 
    From bool Foam::functionObjectList::read()
    in file db/functionObjects/functionObjectList/functionObjectList.C at line 1035
    Reading "system/controlDict" at line 2 to 41
    Entry 'dt' is not a dictionary
--> FOAM Warning : 
    From bool Foam::functionObjectList::read()
    in file db/functionObjects/functionObjectList/functionObjectList.C at line 1035
    Reading "system/controlDict" at line 2 to 41
    Entry 'tAvg' is not a dictionary
--> FOAM Warning : 
    From bool Foam::functionObjectList::read()
    in file db/functionObjects/functionObjectList/functionObjectList.C at line 1035
    Reading "system/controlDict" at line 2 to 41
    Entry 'tEnd' is not a dictionary
--> FOAM Warning : 
    From bool Foam::functionObjectList::read()
    in file db/functionObjects/functionObjectList/functionObjectList.C at line 1035
    Reading "system/controlDict" at line 2 to 41
    Entry 'writeInterval_' is not a dictionary
--> FOAM Warning : 
    From bool Foam::functionObjectList::read()
    in file db/functionObjects/functionObjectList/functionObjectList.C at line 1035
    Reading "system/controlDict" at line 2 to 41
    Entry 'nCores' is not a dictionary
--> FOAM Warning : 
    From bool Foam::functionObjectList::read()
    in file db/functionObjects/functionObjectList/functionObjectList.C at line 1035
    Reading "system/controlDict" at line 2 to 41
    Entry 'interpScheme' is not a dictionary
--> FOAM Warning : 
    From bool Foam::functionObjectList::read()
    in file db/functionObjects/functionObjectList/functionObjectList.C at line 1035
    Reading "system/controlDict" at line 2 to 41
    Entry 'probeField' is not a dictionary
wallShearStress wallShearStress:
    processing wall patches: 
        Windsor_Body
        CFDWT_Floor
        Windsor_Pins
        Windsor_Base
        Windsor_Body_2
        CFDWT_Floor_2
        Windsor_Pins_2
        Windsor_Base_2

pressure calc_cp:
    Operating mode: staticCoeff
    Not including hydrostatic effects

forceCoeffs forceCoeffsAll:
    rho: rhoInf
    Freestream density (rhoInf) set to 1
    Not including porosity effects
    magUInf: 40
    lRef   : 0.6375
    Aref   : 0.1124
    rhoInf : 1
    Selecting all coefficients
    - Drag force: Cd
    - Drag force front: Cd(f)
    - Drag force rear: Cd(r)
    - Lift force: Cl
    - Lift force front: Cl(f)
    - Lift force rear: Cl(r)
    - Pitch moment: CmPitch
    - Roll moment: CmRoll
    - Yaw moment: CmYaw
    - Side force: Cs
    - Side force front: Cs(f)
    - Side force rear: Cs(r)


forceCoeffs dragCoeffBase:
    rho: rhoInf
    Freestream density (rhoInf) set to 1
    Not including porosity effects
    magUInf: 40
    lRef   : 0.6375
    Aref   : 0.1124
    rhoInf : 1
    Selecting coefficients:
    - Drag force: Cd


Time = 1

velocityDampingConstraint velocityDamping damped 0 (0%) of cells, with max limit 300
[INFO] MatrixAssemblyU: 1700.515 [ms]
smoothSolver:  Solving for Ux, Initial residual = 0.9999999999995276, Final residual = 0.08730238142894489, No Iterations 15
smoothSolver:  Solving for Uy, Initial residual = 1, Final residual = 0.0896851402283783, No Iterations 31
smoothSolver:  Solving for Uz, Initial residual = 1, Final residual = 0.03285812052744546, No Iterations 2
[INFO] MomentumPredictor: 1609.788 [ms]
[INFO] MatrixAssemblyPI: 224.544 [ms]
[INFO] MatrixAssemblyPII: 114.047 [ms]
DICPCG:  Solving for p, Initial residual = 1, Final residual = 0.009621622380505302, No Iterations 416
[INFO] SolveP: 15047.192 [ms]
time step continuity errors : sum local = 0.003530224631644493, global = 8.652463075518112e-05, cumulative = 8.652463075518112e-05
[INFO] postSolveP: 63.791 [ms]
smoothSolver:  Solving for nuTilda, Initial residual = 0.9999999948613556, Final residual = 0.06427830379213, No Iterations 3
[INFO] TimeStep: 19737.756 [ms]
ExecutionTime = 58.5 s  ClockTime = 59 s

--> FOAM Warning : 
    From virtual bool Foam::functionObjects::fieldSelection::checkSelection()
    in file functionObjects/fieldSelections/fieldSelection/fieldSelection.C at line 166
    Field k not found
--> FOAM Warning : 
    From virtual bool Foam::functionObjects::fieldSelection::checkSelection()
    in file functionObjects/fieldSelections/fieldSelection/fieldSelection.C at line 166
    Field gammaInt not found
--> FOAM Warning : 
    From virtual bool Foam::functionObjects::fieldSelection::checkSelection()
    in file functionObjects/fieldSelections/fieldSelection/fieldSelection.C at line 166
    Field omega not found
--> FOAM Warning : 
    From virtual bool Foam::functionObjects::fieldSelection::checkSelection()
    in file functionObjects/fieldSelections/fieldSelection/fieldSelection.C at line 166
    Field ReThetat not found
--> FOAM Warning : 
    From virtual bool Foam::functionObjects::fieldSelection::checkSelection()
    in file functionObjects/fieldSelections/fieldSelection/fieldSelection.C at line 166
    Field epsilon not found
--> FOAM Warning : 
    From virtual bool Foam::functionObjects::solverFieldSelection::updateSelection()
    in file functionObjects/fieldSelections/solverFieldSelection/solverFieldSelection.C at line 85
    Valid solver fields are: 3(U nuTilda p)Time = 2

velocityDampingConstraint velocityDamping damped 0 (0%) of cells, with max limit 300
[INFO] MatrixAssemblyU: 1620.833 [ms]
smoothSolver:  Solving for Ux, Initial residual = 0.2130775727396447, Final residual = 0.01838514923917182, No Iterations 13
smoothSolver:  Solving for Uy, Initial residual = 0.3547607536922463, Final residual = 0.03310682619574569, No Iterations 13
smoothSolver:  Solving for Uz, Initial residual = 0.3287612500919478, Final residual = 0.02811062849994275, No Iterations 13
[INFO] MomentumPredictor: 1336.007 [ms]
[INFO] MatrixAssemblyPI: 224.457 [ms]
[INFO] MatrixAssemblyPII: 113.787 [ms]
DICPCG:  Solving for p, Initial residual = 0.2098585693789463, Final residual = 0.002053712308814787, No Iterations 336
[INFO] SolveP: 12303.327 [ms]
time step continuity errors : sum local = 0.04208416420248137, global = 0.001698997303136761, cumulative = 0.001785521933891942
[INFO] postSolveP: 62.948 [ms]
smoothSolver:  Solving for nuTilda, Initial residual = 0.4060190984721277, Final residual = 0.02532042699000341, No Iterations 1
[INFO] TimeStep: 16599.102 [ms]
ExecutionTime = 76.37 s  ClockTime = 77 s

Time = 3

velocityDampingConstraint velocityDamping damped 1662 (0.01%) of cells, with max limit 300
[INFO] MatrixAssemblyU: 1668.348 [ms]
smoothSolver:  Solving for Ux, Initial residual = 0.1246891961689212, Final residual = 0.01175086231783034, No Iterations 9
smoothSolver:  Solving for Uy, Initial residual = 0.2054439893444115, Final residual = 0.01966272401021493, No Iterations 10
smoothSolver:  Solving for Uz, Initial residual = 0.2189814307324039, Final residual = 0.02135749376309773, No Iterations 9
[INFO] MomentumPredictor: 1018.474 [ms]
[INFO] MatrixAssemblyPI: 225.011 [ms]
[INFO] MatrixAssemblyPII: 113.493 [ms]
DICPCG:  Solving for p, Initial residual = 0.1185946115809565, Final residual = 0.001183669977557419, No Iterations 186
[INFO] SolveP: 6780.625 [ms]
time step continuity errors : sum local = 0.01322854623502337, global = -0.001010597754184114, cumulative = 0.000774924179707828
[INFO] postSolveP: 62.427 [ms]
smoothSolver:  Solving for nuTilda, Initial residual = 0.2090778401887728, Final residual = 0.01313000784085538, No Iterations 2
[INFO] TimeStep: 10832.192 [ms]
ExecutionTime = 88.52 s  ClockTime = 89 s

Time = 4

velocityDampingConstraint velocityDamping damped 0 (0%) of cells, with max limit 300
[INFO] MatrixAssemblyU: 1663.932 [ms]
smoothSolver:  Solving for Ux, Initial residual = 0.05386257774738044, Final residual = 0.004956042852673684, No Iterations 11
smoothSolver:  Solving for Uy, Initial residual = 0.1229941862036514, Final residual = 0.01105113288525481, No Iterations 11
smoothSolver:  Solving for Uz, Initial residual = 0.1337636409147565, Final residual = 0.0130791251930916, No Iterations 10
[INFO] MomentumPredictor: 1133.155 [ms]
[INFO] MatrixAssemblyPI: 224.526 [ms]
[INFO] MatrixAssemblyPII: 113.199 [ms]
DICPCG:  Solving for p, Initial residual = 0.1348672807553389, Final residual = 0.00134580102809195, No Iterations 110
[INFO] SolveP: 4053.224 [ms]
time step continuity errors : sum local = 0.01341013026089348, global = -0.002139377811294283, cumulative = -0.001364453631586455
[INFO] postSolveP: 61.969 [ms]
smoothSolver:  Solving for nuTilda, Initial residual = 0.1247690489606414, Final residual = 0.0105013229380256, No Iterations 2
[INFO] TimeStep: 8207.082 [ms]
ExecutionTime = 98.06999999999999 s  ClockTime = 98 s

Time = 5

velocityDampingConstraint velocityDamping damped 224 (0%) of cells, with max limit 300
[INFO] MatrixAssemblyU: 1652.02 [ms]
smoothSolver:  Solving for Ux, Initial residual = 0.04358399254138982, Final residual = 0.004190652967622533, No Iterations 10
smoothSolver:  Solving for Uy, Initial residual = 0.09787585991939306, Final residual = 0.009332342051235704, No Iterations 11
smoothSolver:  Solving for Uz, Initial residual = 0.1135300482794653, Final residual = 0.009561256358369323, No Iterations 11
[INFO] MomentumPredictor: 1131.525 [ms]
[INFO] MatrixAssemblyPI: 224.83 [ms]
[INFO] MatrixAssemblyPII: 113.69 [ms]
DICPCG:  Solving for p, Initial residual = 0.09730674731223674, Final residual = 0.0009692180737348852, No Iterations 229
[INFO] SolveP: 8371.266 [ms]
time step continuity errors : sum local = 0.007656942322687677, global = -0.0002531343771133305, cumulative = -0.001617588008699786
[INFO] postSolveP: 63.106 [ms]
smoothSolver:  Solving for nuTilda, Initial residual = 0.07088260503894414, Final residual = 0.004307597240528829, No Iterations 3
[INFO] TimeStep: 12537.586 [ms]
ExecutionTime = 111.91 s  ClockTime = 112 s

Time = 6

velocityDampingConstraint velocityDamping damped 0 (0%) of cells, with max limit 300
[INFO] MatrixAssemblyU: 1643.115 [ms]
smoothSolver:  Solving for Ux, Initial residual = 0.02998632253728687, Final residual = 0.002654150977708018, No Iterations 12
smoothSolver:  Solving for Uy, Initial residual = 0.0747110931884158, Final residual = 0.006881893978275788, No Iterations 12
smoothSolver:  Solving for Uz, Initial residual = 0.08081522498783361, Final residual = 0.006857264555872708, No Iterations 12
[INFO] MomentumPredictor: 1252.884 [ms]
[INFO] MatrixAssemblyPI: 224.413 [ms]
[INFO] MatrixAssemblyPII: 113.218 [ms]
DICPCG:  Solving for p, Initial residual = 0.09784743169091048, Final residual = 0.0009651523456049214, No Iterations 138
[INFO] SolveP: 5073.476 [ms]
time step continuity errors : sum local = 0.00700264565405222, global = 0.00072697903483425, cumulative = -0.0008906089738655356
[INFO] postSolveP: 62.976 [ms]
smoothSolver:  Solving for nuTilda, Initial residual = 0.06435994755048158, Final residual = 0.006428553919576571, No Iterations 2
[INFO] TimeStep: 9315.913 [ms]
ExecutionTime = 122.53 s  ClockTime = 123 s

Time = 7

velocityDampingConstraint velocityDamping damped 30 (0%) of cells, with max limit 300
[INFO] MatrixAssemblyU: 1620.389 [ms]
smoothSolver:  Solving for Ux, Initial residual = 0.02717274827929077, Final residual = 0.002425878578829813, No Iterations 12
smoothSolver:  Solving for Uy, Initial residual = 0.06759510748344633, Final residual = 0.006386017225944084, No Iterations 12
smoothSolver:  Solving for Uz, Initial residual = 0.07099166336987212, Final residual = 0.006174909973757831, No Iterations 12
[INFO] MomentumPredictor: 1251.825 [ms]
[INFO] MatrixAssemblyPI: 224.142 [ms]
[INFO] MatrixAssemblyPII: 113.312 [ms]
DICPCG:  Solving for p, Initial residual = 0.08359623316425151, Final residual = 0.0008299107957307223, No Iterations 123
[INFO] SolveP: 4514.189 [ms]
time step continuity errors : sum local = 0.006026393970395096, global = 0.001014070210673108, cumulative = 0.0001234612368075726
[INFO] postSolveP: 63.22 [ms]
smoothSolver:  Solving for nuTilda, Initial residual = 0.04947096204635595, Final residual = 0.003234665449724599, No Iterations 3
[INFO] TimeStep: 8757.689 [ms]
ExecutionTime = 132.58 s  ClockTime = 133 s

Time = 8

velocityDampingConstraint velocityDamping damped 0 (0%) of cells, with max limit 300
[INFO] MatrixAssemblyU: 1608.708 [ms]
smoothSolver:  Solving for Ux, Initial residual = 0.02310233185247939, Final residual = 0.002134459882504758, No Iterations 12
smoothSolver:  Solving for Uy, Initial residual = 0.0600274624536095, Final residual = 0.005882532183980259, No Iterations 12
smoothSolver:  Solving for Uz, Initial residual = 0.06175016957621546, Final residual = 0.005565579369893716, No Iterations 12
[INFO] MomentumPredictor: 1251.101 [ms]
[INFO] MatrixAssemblyPI: 224.805 [ms]
[INFO] MatrixAssemblyPII: 113.375 [ms]
DICPCG:  Solving for p, Initial residual = 0.07537994313644233, Final residual = 0.0007517779515863787, No Iterations 119
[INFO] SolveP: 4391.345 [ms]
time step continuity errors : sum local = 0.005580196555457536, global = 0.001174839791105131, cumulative = 0.001298301027912703
[INFO] postSolveP: 62.199 [ms]
smoothSolver:  Solving for nuTilda, Initial residual = 0.06592875905925118, Final residual = 0.005889922697507703, No Iterations 2
[INFO] TimeStep: 8590.046 [ms]
ExecutionTime = 142.45 s  ClockTime = 143 s

Time = 9

velocityDampingConstraint velocityDamping damped 0 (0%) of cells, with max limit 300
[INFO] MatrixAssemblyU: 1604.408 [ms]
smoothSolver:  Solving for Ux, Initial residual = 0.02034814247763289, Final residual = 0.001896621699204155, No Iterations 12
smoothSolver:  Solving for Uy, Initial residual = 0.05426803850393155, Final residual = 0.005397695799099382, No Iterations 12
smoothSolver:  Solving for Uz, Initial residual = 0.05503303836754888, Final residual = 0.005099285889569988, No Iterations 12
[INFO] MomentumPredictor: 1250.476 [ms]
[INFO] MatrixAssemblyPI: 224.554 [ms]
[INFO] MatrixAssemblyPII: 113.611 [ms]
DICPCG:  Solving for p, Initial residual = 0.06850248380373088, Final residual = 0.0006841767454451745, No Iterations 125
[INFO] SolveP: 4593.389 [ms]
time step continuity errors : sum local = 0.005164700057072055, global = 0.001329311793363793, cumulative = 0.002627612821276496
[INFO] postSolveP: 62.161 [ms]
smoothSolver:  Solving for nuTilda, Initial residual = 0.04446225276674912, Final residual = 0.003226654959292515, No Iterations 3
[INFO] TimeStep: 8814.602000000001 [ms]
ExecutionTime = 152.53 s  ClockTime = 153 s

Time = 10

velocityDampingConstraint velocityDamping damped 0 (0%) of cells, with max limit 300
[INFO] MatrixAssemblyU: 1601.617 [ms]
smoothSolver:  Solving for Ux, Initial residual = 0.01833397424539373, Final residual = 0.001722965678934204, No Iterations 12
smoothSolver:  Solving for Uy, Initial residual = 0.05013656348443692, Final residual = 0.004974242460806277, No Iterations 12
smoothSolver:  Solving for Uz, Initial residual = 0.05045950200289526, Final residual = 0.004737397064870389, No Iterations 12
[INFO] MomentumPredictor: 1251.386 [ms]
[INFO] MatrixAssemblyPI: 224.521 [ms]
[INFO] MatrixAssemblyPII: 115.291 [ms]
DICPCG:  Solving for p, Initial residual = 0.06195398677349619, Final residual = 0.0006154881844569323, No Iterations 226
[INFO] SolveP: 8267.950000000001 [ms]
time step continuity errors : sum local = 0.004652723057513412, global = 0.0001078566889577147, cumulative = 0.002735469510234211
[INFO] postSolveP: 62.278 [ms]
smoothSolver:  Solving for nuTilda, Initial residual = 0.07002267975397054, Final residual = 0.005532651056078287, No Iterations 2
[INFO] TimeStep: 12460.177 [ms]
ExecutionTime = 166.26 s  ClockTime = 167 s

Time = 11

velocityDampingConstraint velocityDamping damped 0 (0%) of cells, with max limit 300
[INFO] MatrixAssemblyU: 1598.547 [ms]
smoothSolver:  Solving for Ux, Initial residual = 0.01671474449571566, Final residual = 0.001595795926182633, No Iterations 12
smoothSolver:  Solving for Uy, Initial residual = 0.04765125247424617, Final residual = 0.004696679084613827, No Iterations 12
smoothSolver:  Solving for Uz, Initial residual = 0.04754194448888784, Final residual = 0.00449874723269757, No Iterations 12
[INFO] MomentumPredictor: 1247.908 [ms]
[INFO] MatrixAssemblyPI: 225.055 [ms]
[INFO] MatrixAssemblyPII: 112.94 [ms]
DICPCG:  Solving for p, Initial residual = 0.05426658893119422, Final residual = 0.0005195997117824415, No Iterations 108
[INFO] SolveP: 3983.11 [ms]
time step continuity errors : sum local = 0.004186645803469596, global = -0.0006706323378382789, cumulative = 0.002064837172395932
[INFO] postSolveP: 63.294 [ms]
smoothSolver:  Solving for nuTilda, Initial residual = 0.03933839109979956, Final residual = 0.003052894316337666, No Iterations 3
[INFO] TimeStep: 8199 [ms]
ExecutionTime = 175.73 s  ClockTime = 176 s

Time = 12

velocityDampingConstraint velocityDamping damped 0 (0%) of cells, with max limit 300
[INFO] MatrixAssemblyU: 1596.869 [ms]
smoothSolver:  Solving for Ux, Initial residual = 0.01550537349318124, Final residual = 0.001510016908050886, No Iterations 12
smoothSolver:  Solving for Uy, Initial residual = 0.04533766418381474, Final residual = 0.004430967870573199, No Iterations 12
smoothSolver:  Solving for Uz, Initial residual = 0.04475451633693145, Final residual = 0.004253989759116394, No Iterations 12
[INFO] MomentumPredictor: 1250.97 [ms]
[INFO] MatrixAssemblyPI: 224.698 [ms]
[INFO] MatrixAssemblyPII: 113.325 [ms]
DICPCG:  Solving for p, Initial residual = 0.0513722121548324, Final residual = 0.0005012602518268144, No Iterations 122
[INFO] SolveP: 4496.363 [ms]
time step continuity errors : sum local = 0.003987680088485338, global = -0.000901283017906721, cumulative = 0.001163554154489211
[INFO] postSolveP: 62.267 [ms]
smoothSolver:  Solving for nuTilda, Initial residual = 0.06585181826729372, Final residual = 0.005136146023939319, No Iterations 2
[INFO] TimeStep: 8680.869000000001 [ms]
ExecutionTime = 185.67 s  ClockTime = 186 s

Time = 13

velocityDampingConstraint velocityDamping damped 0 (0%) of cells, with max limit 300
[INFO] MatrixAssemblyU: 1595.58 [ms]
smoothSolver:  Solving for Ux, Initial residual = 0.0145025640843441, Final residual = 0.001439537857998617, No Iterations 12
smoothSolver:  Solving for Uy, Initial residual = 0.04345523049605594, Final residual = 0.004234538956791263, No Iterations 12
smoothSolver:  Solving for Uz, Initial residual = 0.04295069598253957, Final residual = 0.004109741190964925, No Iterations 12
[INFO] MomentumPredictor: 1247.105 [ms]
[INFO] MatrixAssemblyPI: 224.801 [ms]
[INFO] MatrixAssemblyPII: 113.619 [ms]
DICPCG:  Solving for p, Initial residual = 0.04890708754255879, Final residual = 0.0004794147520668506, No Iterations 222
[INFO] SolveP: 8115.125 [ms]
time step continuity errors : sum local = 0.003784058326868369, global = -0.0002630858285620172, cumulative = 0.0009004683259271936
[INFO] postSolveP: 62.581 [ms]
smoothSolver:  Solving for nuTilda, Initial residual = 0.03476117882375791, Final residual = 0.00285206734558913, No Iterations 3
[INFO] TimeStep: 12322.003 [ms]
ExecutionTime = 199.25 s  ClockTime = 200 s

Time = 14

velocityDampingConstraint velocityDamping damped 0 (0%) of cells, with max limit 300
[INFO] MatrixAssemblyU: 1593.698 [ms]
smoothSolver:  Solving for Ux, Initial residual = 0.01380289560870827, Final residual = 0.001376740458797278, No Iterations 12
smoothSolver:  Solving for Uy, Initial residual = 0.04191452153297709, Final residual = 0.004085860382252744, No Iterations 12
smoothSolver:  Solving for Uz, Initial residual = 0.04225705075630887, Final residual = 0.004052797558333414, No Iterations 12
[INFO] MomentumPredictor: 1249.288 [ms]
[INFO] MatrixAssemblyPI: 224.996 [ms]
[INFO] MatrixAssemblyPII: 113.477 [ms]
DICPCG:  Solving for p, Initial residual = 0.04831042242229149, Final residual = 0.0004750497523580029, No Iterations 95
[INFO] SolveP: 3506.743 [ms]
time step continuity errors : sum local = 0.003626350359578492, global = 0.0003847243408964746, cumulative = 0.001285192666823668
[INFO] postSolveP: 62.01 [ms]
smoothSolver:  Solving for nuTilda, Initial residual = 0.05852589023676925, Final residual = 0.004826182040729028, No Iterations 2
[INFO] TimeStep: 7682.789 [ms]
ExecutionTime = 208.21 s  ClockTime = 209 s

Time = 15

velocityDampingConstraint velocityDamping damped 0 (0%) of cells, with max limit 300
[INFO] MatrixAssemblyU: 1592.309 [ms]
smoothSolver:  Solving for Ux, Initial residual = 0.01290026981113521, Final residual = 0.001113323970646286, No Iterations 13
smoothSolver:  Solving for Uy, Initial residual = 0.04007925319515925, Final residual = 0.003937537592331937, No Iterations 12
smoothSolver:  Solving for Uz, Initial residual = 0.04156847457585747, Final residual = 0.004014506282443834, No Iterations 12
[INFO] MomentumPredictor: 1276.967 [ms]
[INFO] MatrixAssemblyPI: 224.162 [ms]
[INFO] MatrixAssemblyPII: 113.76 [ms]
DICPCG:  Solving for p, Initial residual = 0.04696192069557072, Final residual = 0.000457023192979821, No Iterations 220
[INFO] SolveP: 8038.51 [ms]
time step continuity errors : sum local = 0.003483564079086818, global = 5.884330487403173e-05, cumulative = 0.0013440359716977
[INFO] postSolveP: 62.246 [ms]
smoothSolver:  Solving for nuTilda, Initial residual = 0.03117378159084017, Final residual = 0.002681134246281747, No Iterations 3
[INFO] TimeStep: 12271.539 [ms]
ExecutionTime = 221.73 s  ClockTime = 223 s

Time = 16

velocityDampingConstraint velocityDamping damped 0 (0%) of cells, with max limit 300
[INFO] MatrixAssemblyU: 1589.959 [ms]
smoothSolver:  Solving for Ux, Initial residual = 0.01218890610165768, Final residual = 0.001054919487017828, No Iterations 13
smoothSolver:  Solving for Uy, Initial residual = 0.03949639106506101, Final residual = 0.003895699499045801, No Iterations 12
smoothSolver:  Solving for Uz, Initial residual = 0.04165311701311445, Final residual = 0.004033717795090238, No Iterations 12
[INFO] MomentumPredictor: 1280.211 [ms]
[INFO] MatrixAssemblyPI: 224.862 [ms]
[INFO] MatrixAssemblyPII: 113.586 [ms]
DICPCG:  Solving for p, Initial residual = 0.04384303051384856, Final residual = 0.0004269267344372205, No Iterations 83
[INFO] SolveP: 3076.681 [ms]
time step continuity errors : sum local = 0.003397525541473098, global = -0.0001601658648679707, cumulative = 0.001183870106829729
[INFO] postSolveP: 62.601 [ms]
smoothSolver:  Solving for nuTilda, Initial residual = 0.05194008488832577, Final residual = 0.004570778435032244, No Iterations 2
[INFO] TimeStep: 7280.816 [ms]
ExecutionTime = 230.28 s  ClockTime = 231 s

Time = 17

velocityDampingConstraint velocityDamping damped 0 (0%) of cells, with max limit 300
[INFO] MatrixAssemblyU: 1589.088 [ms]
smoothSolver:  Solving for Ux, Initial residual = 0.01155093456744937, Final residual = 0.001005542096315496, No Iterations 13
smoothSolver:  Solving for Uy, Initial residual = 0.03877901410953101, Final residual = 0.003860992556907874, No Iterations 12
smoothSolver:  Solving for Uz, Initial residual = 0.04150244917030069, Final residual = 0.004040760728968675, No Iterations 12
[INFO] MomentumPredictor: 1276.257 [ms]
[INFO] MatrixAssemblyPI: 224.16 [ms]
[INFO] MatrixAssemblyPII: 113.257 [ms]
DICPCG:  Solving for p, Initial residual = 0.04355427392372201, Final residual = 0.0004221937881826404, No Iterations 101
[INFO] SolveP: 3723.658 [ms]
time step continuity errors : sum local = 0.00336500909694256, global = -0.0002894472813176487, cumulative = 0.0008944228255120804
[INFO] postSolveP: 62.201 [ms]
smoothSolver:  Solving for nuTilda, Initial residual = 0.02854048484244796, Final residual = 0.002529477549386455, No Iterations 3
[INFO] TimeStep: 7949.583 [ms]
ExecutionTime = 239.49 s  ClockTime = 240 s

Time = 18

velocityDampingConstraint velocityDamping damped 0 (0%) of cells, with max limit 300
[INFO] MatrixAssemblyU: 1587.693 [ms]
smoothSolver:  Solving for Ux, Initial residual = 0.01120629642949112, Final residual = 0.0009653171085042772, No Iterations 13
smoothSolver:  Solving for Uy, Initial residual = 0.03870451856335234, Final residual = 0.00329694414574888, No Iterations 13
smoothSolver:  Solving for Uz, Initial residual = 0.04176967523078466, Final residual = 0.004048304075063261, No Iterations 12
[INFO] MomentumPredictor: 1307.547 [ms]
[INFO] MatrixAssemblyPI: 224.453 [ms]
[INFO] MatrixAssemblyPII: 113.192 [ms]
DICPCG:  Solving for p, Initial residual = 0.04359503502148088, Final residual = 0.0004262829986282933, No Iterations 109
[INFO] SolveP: 4015.515 [ms]
time step continuity errors : sum local = 0.003408690191554045, global = -0.0002744673063655654, cumulative = 0.000619955519146515
[INFO] postSolveP: 62.09 [ms]
smoothSolver:  Solving for nuTilda, Initial residual = 0.04658305573031563, Final residual = 0.00431565242765775, No Iterations 2
[INFO] TimeStep: 8242.237999999999 [ms]
ExecutionTime = 249 s  ClockTime = 250 s

Time = 19

velocityDampingConstraint velocityDamping damped 0 (0%) of cells, with max limit 300
[INFO] MatrixAssemblyU: 1586.582 [ms]
smoothSolver:  Solving for Ux, Initial residual = 0.01087716319886892, Final residual = 0.0009361217661026406, No Iterations 13
smoothSolver:  Solving for Uy, Initial residual = 0.03899106209494541, Final residual = 0.003895260418799674, No Iterations 12
smoothSolver:  Solving for Uz, Initial residual = 0.04255758210976691, Final residual = 0.004096102055432798, No Iterations 12
[INFO] MomentumPredictor: 1281.529 [ms]
[INFO] MatrixAssemblyPI: 224.114 [ms]
[INFO] MatrixAssemblyPII: 113.475 [ms]
DICPCG:  Solving for p, Initial residual = 0.04386457031492842, Final residual = 0.0004357449519386963, No Iterations 116
[INFO] SolveP: 4266.408 [ms]
time step continuity errors : sum local = 0.003499414817849475, global = -0.000216677209188958, cumulative = 0.000403278309957557
[INFO] postSolveP: 62.175 [ms]
smoothSolver:  Solving for nuTilda, Initial residual = 0.02655004736837945, Final residual = 0.002377879128383173, No Iterations 3
[INFO] TimeStep: 8495.021000000001 [ms]
ExecutionTime = 258.76 s  ClockTime = 260 s

Time = 20

velocityDampingConstraint velocityDamping damped 0 (0%) of cells, with max limit 300
[INFO] MatrixAssemblyU: 1587.527 [ms]
smoothSolver:  Solving for Ux, Initial residual = 0.01071105379311457, Final residual = 0.0009160929511225561, No Iterations 13
smoothSolver:  Solving for Uy, Initial residual = 0.03949038045449057, Final residual = 0.003939313653472383, No Iterations 12
smoothSolver:  Solving for Uz, Initial residual = 0.04313995391071502, Final residual = 0.004123758745133327, No Iterations 12
[INFO] MomentumPredictor: 1282.58 [ms]
[INFO] MatrixAssemblyPI: 225.345 [ms]
[INFO] MatrixAssemblyPII: 112.996 [ms]
DICPCG:  Solving for p, Initial residual = 0.04387753384918001, Final residual = 0.0004355096319852612, No Iterations 114
[INFO] SolveP: 4201.885 [ms]
time step continuity errors : sum local = 0.003524151499834994, global = -0.0001034455884870128, cumulative = 0.0002998327214705442
[INFO] postSolveP: 61.751 [ms]
smoothSolver:  Solving for nuTilda, Initial residual = 0.04203200251404651, Final residual = 0.004059168580276292, No Iterations 2
[INFO] TimeStep: 8402.887000000001 [ms]
ExecutionTime = 268.41 s  ClockTime = 269 s

Time = 21

velocityDampingConstraint velocityDamping damped 0 (0%) of cells, with max limit 300
[INFO] MatrixAssemblyU: 1588.105 [ms]
smoothSolver:  Solving for Ux, Initial residual = 0.01051948487955094, Final residual = 0.0009025468125168706, No Iterations 13
smoothSolver:  Solving for Uy, Initial residual = 0.04009390750086543, Final residual = 0.003978004053072082, No Iterations 12
smoothSolver:  Solving for Uz, Initial residual = 0.04349650299754008, Final residual = 0.004125353387622085, No Iterations 12
[INFO] MomentumPredictor: 1278.12 [ms]
[INFO] MatrixAssemblyPI: 225.261 [ms]
[INFO] MatrixAssemblyPII: 113.483 [ms]
DICPCG:  Solving for p, Initial residual = 0.04411454818302686, Final residual = 0.0004311974436748979, No Iterations 118
[INFO] SolveP: 4341.087 [ms]
time step continuity errors : sum local = 0.003518610779790713, global = 0.0001100615898934319, cumulative = 0.0004098943113639761
[INFO] postSolveP: 62.467 [ms]
smoothSolver:  Solving for nuTilda, Initial residual = 0.02487096828773424, Final residual = 0.002230203267503215, No Iterations 3
[INFO] TimeStep: 8568.27 [ms]
ExecutionTime = 278.25 s  ClockTime = 279 s

Time = 22

velocityDampingConstraint velocityDamping damped 0 (0%) of cells, with max limit 300
[INFO] MatrixAssemblyU: 1586.046 [ms]
smoothSolver:  Solving for Ux, Initial residual = 0.01050087754368567, Final residual = 0.001046430707407862, No Iterations 12
smoothSolver:  Solving for Uy, Initial residual = 0.04070318080042231, Final residual = 0.003995258645698871, No Iterations 12
smoothSolver:  Solving for Uz, Initial residual = 0.04344750522185473, Final residual = 0.004086661502122482, No Iterations 12
[INFO] MomentumPredictor: 1250.452 [ms]
[INFO] MatrixAssemblyPI: 225.597 [ms]
[INFO] MatrixAssemblyPII: 113.711 [ms]
DICPCG:  Solving for p, Initial residual = 0.04405318238072355, Final residual = 0.0004319705181891841, No Iterations 120
[INFO] SolveP: 4411.091 [ms]
time step continuity errors : sum local = 0.003562983174002662, global = 0.0003673535300950882, cumulative = 0.0007772478414590642
[INFO] postSolveP: 62.256 [ms]
smoothSolver:  Solving for nuTilda, Initial residual = 0.03813588626670754, Final residual = 0.003812403672184409, No Iterations 2
[INFO] TimeStep: 8580.629000000001 [ms]
ExecutionTime = 288.09 s  ClockTime = 289 s

Time = 23

velocityDampingConstraint velocityDamping damped 0 (0%) of cells, with max limit 300
[INFO] MatrixAssemblyU: 1585.807 [ms]
smoothSolver:  Solving for Ux, Initial residual = 0.01038985850892564, Final residual = 0.00103852158077561, No Iterations 12
smoothSolver:  Solving for Uy, Initial residual = 0.04122652277451729, Final residual = 0.003987324786736146, No Iterations 12
smoothSolver:  Solving for Uz, Initial residual = 0.04297656370519573, Final residual = 0.003997696173350565, No Iterations 12
[INFO] MomentumPredictor: 1249.782 [ms]
[INFO] MatrixAssemblyPI: 224.74 [ms]
[INFO] MatrixAssemblyPII: 114.078 [ms]
DICPCG:  Solving for p, Initial residual = 0.04382579927089707, Final residual = 0.0004368301026161582, No Iterations 122
[INFO] SolveP: 4479.508 [ms]
time step continuity errors : sum local = 0.003654384775740705, global = 0.0006419601810553036, cumulative = 0.001419208022514368
[INFO] postSolveP: 62.397 [ms]
smoothSolver:  Solving for nuTilda, Initial residual = 0.02315554075090013, Final residual = 0.002094871188283749, No Iterations 3
[INFO] TimeStep: 8677.232 [ms]
ExecutionTime = 298.02 s  ClockTime = 299 s

Time = 24

velocityDampingConstraint velocityDamping damped 0 (0%) of cells, with max limit 300
[INFO] MatrixAssemblyU: 1585.686 [ms]
smoothSolver:  Solving for Ux, Initial residual = 0.01043496597794302, Final residual = 0.001035234519649398, No Iterations 12
smoothSolver:  Solving for Uy, Initial residual = 0.04191131683893429, Final residual = 0.004020563020928379, No Iterations 12
smoothSolver:  Solving for Uz, Initial residual = 0.04252330279990526, Final residual = 0.003918005476153227, No Iterations 12
[INFO] MomentumPredictor: 1252.118 [ms]
[INFO] MatrixAssemblyPI: 225.425 [ms]
[INFO] MatrixAssemblyPII: 113.793 [ms]
DICPCG:  Solving for p, Initial residual = 0.04339251152699288, Final residual = 0.0004335472564322305, No Iterations 136
[INFO] SolveP: 5008.803 [ms]
time step continuity errors : sum local = 0.003687644362107972, global = 0.0008461773485579427, cumulative = 0.002265385371072311
[INFO] postSolveP: 61.864 [ms]
smoothSolver:  Solving for nuTilda, Initial residual = 0.03485334436873743, Final residual = 0.001923957880217408, No Iterations 3
[INFO] TimeStep: 9207.114 [ms]
ExecutionTime = 308.48 s  ClockTime = 310 s

Time = 25

velocityDampingConstraint velocityDamping damped 0 (0%) of cells, with max limit 300
[INFO] MatrixAssemblyU: 1585.065 [ms]
smoothSolver:  Solving for Ux, Initial residual = 0.01036684712031679, Final residual = 0.0008837476890137463, No Iterations 13
smoothSolver:  Solving for Uy, Initial residual = 0.04280259369363213, Final residual = 0.004116564118117979, No Iterations 12
smoothSolver:  Solving for Uz, Initial residual = 0.04232189599942315, Final residual = 0.003890219825321526, No Iterations 12
[INFO] MomentumPredictor: 1276.651 [ms]
[INFO] MatrixAssemblyPI: 224.448 [ms]
[INFO] MatrixAssemblyPII: 113.679 [ms]
DICPCG:  Solving for p, Initial residual = 0.04261044690952932, Final residual = 0.0004209473715867754, No Iterations 225
[INFO] SolveP: 8220.966 [ms]
time step continuity errors : sum local = 0.003654012155665029, global = -1.116126908549278e-05, cumulative = 0.002254224101986818
[INFO] postSolveP: 62.844 [ms]
smoothSolver:  Solving for nuTilda, Initial residual = 0.0214910549411785, Final residual = 0.001974580468413799, No Iterations 3
[INFO] TimeStep: 12442.506 [ms]
ExecutionTime = 322.17 s  ClockTime = 323 s

Time = 26

velocityDampingConstraint velocityDamping damped 0 (0%) of cells, with max limit 300
[INFO] MatrixAssemblyU: 1588.29 [ms]
smoothSolver:  Solving for Ux, Initial residual = 0.01047637997990312, Final residual = 0.001035096270675065, No Iterations 12
smoothSolver:  Solving for Uy, Initial residual = 0.04404788799989469, Final residual = 0.004277021369430034, No Iterations 12
smoothSolver:  Solving for Uz, Initial residual = 0.04252598368616162, Final residual = 0.003937779165393115, No Iterations 12
[INFO] MomentumPredictor: 1248.395 [ms]
[INFO] MatrixAssemblyPI: 225.2 [ms]
[INFO] MatrixAssemblyPII: 113.363 [ms]
DICPCG:  Solving for p, Initial residual = 0.04096579256629907, Final residual = 0.0004074944282050901, No Iterations 105
[INFO] SolveP: 3879.852 [ms]
time step continuity errors : sum local = 0.003696109501442923, global = -0.0003107260979038486, cumulative = 0.00194349800408297
[INFO] postSolveP: 62.031 [ms]
smoothSolver:  Solving for nuTilda, Initial residual = 0.03186746355685476, Final residual = 0.001817372144321677, No Iterations 3
[INFO] TimeStep: 8077.395 [ms]
ExecutionTime = 331.51 s  ClockTime = 333 s

Time = 27

velocityDampingConstraint velocityDamping damped 0 (0%) of cells, with max limit 300
[INFO] MatrixAssemblyU: 1584.865 [ms]
smoothSolver:  Solving for Ux, Initial residual = 0.01044645970391034, Final residual = 0.001036056994622979, No Iterations 12
smoothSolver:  Solving for Uy, Initial residual = 0.04492680883764235, Final residual = 0.004444905930353862, No Iterations 12
smoothSolver:  Solving for Uz, Initial residual = 0.04282140226225635, Final residual = 0.004025958126385915, No Iterations 12
[INFO] MomentumPredictor: 1248.947 [ms]
[INFO] MatrixAssemblyPI: 224.074 [ms]
[INFO] MatrixAssemblyPII: 113.503 [ms]
DICPCG:  Solving for p, Initial residual = 0.04165488240050408, Final residual = 0.0004160264487672582, No Iterations 114
[INFO] SolveP: 4194.225 [ms]
time step continuity errors : sum local = 0.003782357027285487, global = -0.0003517744817940654, cumulative = 0.001591723522288904
[INFO] postSolveP: 62.913 [ms]
smoothSolver:  Solving for nuTilda, Initial residual = 0.01986901796105449, Final residual = 0.001848645215033569, No Iterations 3
[INFO] TimeStep: 8390.171 [ms]
ExecutionTime = 341.16 s  ClockTime = 342 s

Time = 28

velocityDampingConstraint velocityDamping damped 0 (0%) of cells, with max limit 300
[INFO] MatrixAssemblyU: 1585.4 [ms]
smoothSolver:  Solving for Ux, Initial residual = 0.01058326866868488, Final residual = 0.001039849507427402, No Iterations 12
smoothSolver:  Solving for Uy, Initial residual = 0.04623689697987065, Final residual = 0.00394135959341259, No Iterations 13
smoothSolver:  Solving for Uz, Initial residual = 0.04368102139626521, Final residual = 0.004129188954403641, No Iterations 12
[INFO] MomentumPredictor: 1278.609 [ms]
[INFO] MatrixAssemblyPI: 224.881 [ms]
[INFO] MatrixAssemblyPII: 113.506 [ms]
DICPCG:  Solving for p, Initial residual = 0.04272894471165731, Final residual = 0.0004257722287901385, No Iterations 114
[INFO] SolveP: 4200.031 [ms]
time step continuity errors : sum local = 0.003902403220010792, global = -0.0003802904937228954, cumulative = 0.001211433028566009
[INFO] postSolveP: 61.762 [ms]
smoothSolver:  Solving for nuTilda, Initial residual = 0.02928536462074238, Final residual = 0.001710975859972576, No Iterations 3
[INFO] TimeStep: 8424.713 [ms]
ExecutionTime = 350.84 s  ClockTime = 352 s

Time = 29

velocityDampingConstraint velocityDamping damped 0 (0%) of cells, with max limit 300
[INFO] MatrixAssemblyU: 1584.618 [ms]
smoothSolver:  Solving for Ux, Initial residual = 0.01061409982988915, Final residual = 0.001041565306625736, No Iterations 12
smoothSolver:  Solving for Uy, Initial residual = 0.04781239701264369, Final residual = 0.004077022930704344, No Iterations 13
smoothSolver:  Solving for Uz, Initial residual = 0.04508704026380238, Final residual = 0.00426719735254988, No Iterations 12
[INFO] MomentumPredictor: 1281.086 [ms]
[INFO] MatrixAssemblyPI: 228.12 [ms]
[INFO] MatrixAssemblyPII: 113.429 [ms]
DICPCG:  Solving for p, Initial residual = 0.043799023664836, Final residual = 0.0004354623129620694, No Iterations 100
[INFO] SolveP: 3686.919 [ms]
time step continuity errors : sum local = 0.004028445602495883, global = -0.0003404056752426213, cumulative = 0.0008710273533233876
[INFO] postSolveP: 63.428 [ms]
smoothSolver:  Solving for nuTilda, Initial residual = 0.01843578059878512, Final residual = 0.001724792494685582, No Iterations 3
[INFO] TimeStep: 7915.961 [ms]
ExecutionTime = 360.02 s  ClockTime = 361 s

Time = 30

velocityDampingConstraint velocityDamping damped 0 (0%) of cells, with max limit 300
[INFO] MatrixAssemblyU: 1583.287 [ms]
smoothSolver:  Solving for Ux, Initial residual = 0.01080588033665938, Final residual = 0.001046433526741743, No Iterations 12
smoothSolver:  Solving for Uy, Initial residual = 0.04986744274296784, Final residual = 0.00496034890889905, No Iterations 12
smoothSolver:  Solving for Uz, Initial residual = 0.04669588728060919, Final residual = 0.004398067981620542, No Iterations 12
[INFO] MomentumPredictor: 1249.05 [ms]
[INFO] MatrixAssemblyPI: 224.636 [ms]
[INFO] MatrixAssemblyPII: 113.437 [ms]
DICPCG:  Solving for p, Initial residual = 0.0447999227301798, Final residual = 0.0004428023502325363, No Iterations 98
[INFO] SolveP: 3618.483 [ms]
time step continuity errors : sum local = 0.004136665043850133, global = -0.0002614019595143956, cumulative = 0.000609625393808992
[INFO] postSolveP: 62.096 [ms]
smoothSolver:  Solving for nuTilda, Initial residual = 0.02705933116413168, Final residual = 0.001604012492504737, No Iterations 3
[INFO] TimeStep: 7809.46 [ms]
ExecutionTime = 369.09 s  ClockTime = 371 s

Time = 31

velocityDampingConstraint velocityDamping damped 0 (0%) of cells, with max limit 300
[INFO] MatrixAssemblyU: 1581.425 [ms]
smoothSolver:  Solving for Ux, Initial residual = 0.01086368270860178, Final residual = 0.001051459621159672, No Iterations 12
smoothSolver:  Solving for Uy, Initial residual = 0.05234592073574604, Final residual = 0.005193619988581169, No Iterations 12
smoothSolver:  Solving for Uz, Initial residual = 0.04830321571612639, Final residual = 0.004537556317190505, No Iterations 12
[INFO] MomentumPredictor: 1249.108 [ms]
[INFO] MatrixAssemblyPI: 223.882 [ms]
[INFO] MatrixAssemblyPII: 113.472 [ms]
DICPCG:  Solving for p, Initial residual = 0.04615022360192753, Final residual = 0.0004597621681681942, No Iterations 95
[INFO] SolveP: 3503.47 [ms]
time step continuity errors : sum local = 0.004336720175597665, global = -0.0001262542865442632, cumulative = 0.0004833711072647287
[INFO] postSolveP: 62.237 [ms]
smoothSolver:  Solving for nuTilda, Initial residual = 0.01714299484708001, Final residual = 0.001605584668498677, No Iterations 3
[INFO] TimeStep: 7692.076 [ms]
ExecutionTime = 378.04 s  ClockTime = 380 s

Time = 32

velocityDampingConstraint velocityDamping damped 0 (0%) of cells, with max limit 300
[INFO] MatrixAssemblyU: 1580.455 [ms]
smoothSolver:  Solving for Ux, Initial residual = 0.01099214609995893, Final residual = 0.00105788455325065, No Iterations 12
smoothSolver:  Solving for Uy, Initial residual = 0.05471605847486747, Final residual = 0.005413990266914426, No Iterations 12
smoothSolver:  Solving for Uz, Initial residual = 0.04986849376596292, Final residual = 0.004734906837099992, No Iterations 12
[INFO] MomentumPredictor: 1251.529 [ms]
[INFO] MatrixAssemblyPI: 225.574 [ms]
[INFO] MatrixAssemblyPII: 113.574 [ms]
DICPCG:  Solving for p, Initial residual = 0.04780087631817102, Final residual = 0.0004774325012580558, No Iterations 93
[INFO] SolveP: 3436.033 [ms]
time step continuity errors : sum local = 0.00454927894530013, global = 1.409048979868455e-05, cumulative = 0.0004974615970634133
[INFO] postSolveP: 61.929 [ms]
smoothSolver:  Solving for nuTilda, Initial residual = 0.02513816224330634, Final residual = 0.001501032293600946, No Iterations 3
[INFO] TimeStep: 7627.431 [ms]
ExecutionTime = 386.93 s  ClockTime = 388 s

Time = 33

velocityDampingConstraint velocityDamping damped 0 (0%) of cells, with max limit 300
[INFO] MatrixAssemblyU: 1577.667 [ms]
smoothSolver:  Solving for Ux, Initial residual = 0.01094980944725783, Final residual = 0.001063453688494887, No Iterations 12
smoothSolver:  Solving for Uy, Initial residual = 0.05700589845720869, Final residual = 0.005627725505845446, No Iterations 12
smoothSolver:  Solving for Uz, Initial residual = 0.05201705508506068, Final residual = 0.005002103607946117, No Iterations 12
[INFO] MomentumPredictor: 1248.832 [ms]
[INFO] MatrixAssemblyPI: 224.254 [ms]
[INFO] MatrixAssemblyPII: 113.611 [ms]
DICPCG:  Solving for p, Initial residual = 0.04975213817690829, Final residual = 0.0004969703439191459, No Iterations 91
[INFO] SolveP: 3370.615 [ms]
time step continuity errors : sum local = 0.004777367622351519, global = 0.0001541173778472462, cumulative = 0.0006515789749106595
[INFO] postSolveP: 62.621 [ms]
smoothSolver:  Solving for nuTilda, Initial residual = 0.01603790542090146, Final residual = 0.001494651359364951, No Iterations 3
[INFO] TimeStep: 7553.888 [ms]
ExecutionTime = 395.73 s  ClockTime = 397 s

Time = 34

velocityDampingConstraint velocityDamping damped 0 (0%) of cells, with max limit 300
[INFO] MatrixAssemblyU: 1578.083 [ms]
smoothSolver:  Solving for Ux, Initial residual = 0.01107252511587924, Final residual = 0.001073189037627946, No Iterations 12
smoothSolver:  Solving for Uy, Initial residual = 0.05947567216491334, Final residual = 0.005869886406774445, No Iterations 12
smoothSolver:  Solving for Uz, Initial residual = 0.05450017051816423, Final residual = 0.005291994040288621, No Iterations 12
[INFO] MomentumPredictor: 1249.125 [ms]
[INFO] MatrixAssemblyPI: 224.695 [ms]
[INFO] MatrixAssemblyPII: 113.393 [ms]
DICPCG:  Solving for p, Initial residual = 0.052019974026745, Final residual = 0.0005081466823568045, No Iterations 91
[INFO] SolveP: 3359.705 [ms]
time step continuity errors : sum local = 0.004929480489825546, global = 0.0002723515658984696, cumulative = 0.0009239305408091291
[INFO] postSolveP: 62.018 [ms]
smoothSolver:  Solving for nuTilda, Initial residual = 0.02348128390549846, Final residual = 0.001405302645568022, No Iterations 3
[INFO] TimeStep: 7544.253 [ms]
ExecutionTime = 404.54 s  ClockTime = 406 s

Time = 35

velocityDampingConstraint velocityDamping damped 0 (0%) of cells, with max limit 300
[INFO] MatrixAssemblyU: 1577.197 [ms]
smoothSolver:  Solving for Ux, Initial residual = 0.01113220244602262, Final residual = 0.001086522688453353, No Iterations 12
smoothSolver:  Solving for Uy, Initial residual = 0.06201250328922879, Final residual = 0.00616118641261975, No Iterations 12
smoothSolver:  Solving for Uz, Initial residual = 0.05703471937141021, Final residual = 0.005558525461643902, No Iterations 12
[INFO] MomentumPredictor: 1249.232 [ms]
[INFO] MatrixAssemblyPI: 224.456 [ms]
[INFO] MatrixAssemblyPII: 113.525 [ms]
DICPCG:  Solving for p, Initial residual = 0.05392257477700994, Final residual = 0.0005182647850451962, No Iterations 91
[INFO] SolveP: 3362.955 [ms]
time step continuity errors : sum local = 0.005076344690437873, global = 0.0003606023385077727, cumulative = 0.001284532879316902
[INFO] postSolveP: 62.413 [ms]
smoothSolver:  Solving for nuTilda, Initial residual = 0.01510907229516885, Final residual = 0.001394869936438517, No Iterations 3
[INFO] TimeStep: 7545.491 [ms]
ExecutionTime = 413.34 s  ClockTime = 415 s

Time = 36

velocityDampingConstraint velocityDamping damped 0 (0%) of cells, with max limit 300
[INFO] MatrixAssemblyU: 1574.686 [ms]
smoothSolver:  Solving for Ux, Initial residual = 0.01140232722839575, Final residual = 0.001107581356952428, No Iterations 12
smoothSolver:  Solving for Uy, Initial residual = 0.06421454381790107, Final residual = 0.005519398992225974, No Iterations 13
smoothSolver:  Solving for Uz, Initial residual = 0.05962721819266547, Final residual = 0.005806779941318906, No Iterations 12
[INFO] MomentumPredictor: 1281.686 [ms]
[INFO] MatrixAssemblyPI: 224.99 [ms]
[INFO] MatrixAssemblyPII: 112.992 [ms]
DICPCG:  Solving for p, Initial residual = 0.05544300456804115, Final residual = 0.0005325086611966591, No Iterations 91
[INFO] SolveP: 3357.609 [ms]
time step continuity errors : sum local = 0.005256698850388188, global = 0.0003944315981410553, cumulative = 0.001678964477457957
[INFO] postSolveP: 61.887 [ms]
smoothSolver:  Solving for nuTilda, Initial residual = 0.02203133944949109, Final residual = 0.001317702832064597, No Iterations 3
[INFO] TimeStep: 7569.37 [ms]
ExecutionTime = 422.16 s  ClockTime = 424 s

Time = 37

velocityDampingConstraint velocityDamping damped 0 (0%) of cells, with max limit 300
[INFO] MatrixAssemblyU: 1574.093 [ms]
smoothSolver:  Solving for Ux, Initial residual = 0.01162049320609998, Final residual = 0.001134183489191162, No Iterations 12
smoothSolver:  Solving for Uy, Initial residual = 0.06595784145910992, Final residual = 0.005746713204050876, No Iterations 13
smoothSolver:  Solving for Uz, Initial residual = 0.06231005168738913, Final residual = 0.006039960852839346, No Iterations 12
[INFO] MomentumPredictor: 1279.531 [ms]
[INFO] MatrixAssemblyPI: 225.406 [ms]
[INFO] MatrixAssemblyPII: 113.742 [ms]
DICPCG:  Solving for p, Initial residual = 0.05725633618581651, Final residual = 0.0005719770612808568, No Iterations 89
[INFO] SolveP: 3290.035 [ms]
time step continuity errors : sum local = 0.00568929606444436, global = 0.000395708583942178, cumulative = 0.002074673061400135
[INFO] postSolveP: 62.017 [ms]
smoothSolver:  Solving for nuTilda, Initial residual = 0.0142774833085505, Final residual = 0.001305856027059127, No Iterations 3
[INFO] TimeStep: 7500.121 [ms]
ExecutionTime = 430.91 s  ClockTime = 433 s

Time = 38

velocityDampingConstraint velocityDamping damped 0 (0%) of cells, with max limit 300
[INFO] MatrixAssemblyU: 1574.625 [ms]
smoothSolver:  Solving for Ux, Initial residual = 0.01194514969857976, Final residual = 0.001158027810009521, No Iterations 12
smoothSolver:  Solving for Uy, Initial residual = 0.06752770862310249, Final residual = 0.005930002351395086, No Iterations 13
smoothSolver:  Solving for Uz, Initial residual = 0.06518764743060196, Final residual = 0.006248485486923638, No Iterations 12
[INFO] MomentumPredictor: 1277.765 [ms]
[INFO] MatrixAssemblyPI: 224.856 [ms]
[INFO] MatrixAssemblyPII: 113.175 [ms]
DICPCG:  Solving for p, Initial residual = 0.05799187584979216, Final residual = 0.0005727414318648856, No Iterations 88
[INFO] SolveP: 3263.598 [ms]
time step continuity errors : sum local = 0.005730168033250769, global = 0.0003531303193919918, cumulative = 0.002427803380792127
[INFO] postSolveP: 62.11 [ms]
smoothSolver:  Solving for nuTilda, Initial residual = 0.02076071290014395, Final residual = 0.001240131734508765, No Iterations 3
[INFO] TimeStep: 7471.361 [ms]
ExecutionTime = 439.63 s  ClockTime = 441 s

Time = 39

velocityDampingConstraint velocityDamping damped 0 (0%) of cells, with max limit 300
[INFO] MatrixAssemblyU: 1574.715 [ms]
smoothSolver:  Solving for Ux, Initial residual = 0.01204006094378534, Final residual = 0.001170780377781056, No Iterations 12
smoothSolver:  Solving for Uy, Initial residual = 0.06904888522179732, Final residual = 0.006096965065862747, No Iterations 13
smoothSolver:  Solving for Uz, Initial residual = 0.0677893064966546, Final residual = 0.006477028290200938, No Iterations 12
[INFO] MomentumPredictor: 1280.436 [ms]
[INFO] MatrixAssemblyPI: 223.988 [ms]
[INFO] MatrixAssemblyPII: 113.405 [ms]
DICPCG:  Solving for p, Initial residual = 0.05807215077197452, Final residual = 0.0005759488959452721, No Iterations 87
[INFO] SolveP: 3214.776 [ms]
time step continuity errors : sum local = 0.005789172901868711, global = 0.0002686221084126654, cumulative = 0.002696425489204792
[INFO] postSolveP: 62.676 [ms]
smoothSolver:  Solving for nuTilda, Initial residual = 0.01354548828014765, Final residual = 0.001229834525754201, No Iterations 3
[INFO] TimeStep: 7425.036 [ms]
ExecutionTime = 448.32 s  ClockTime = 450 s

Time = 40

velocityDampingConstraint velocityDamping damped 0 (0%) of cells, with max limit 300
[INFO] MatrixAssemblyU: 1570.954 [ms]
smoothSolver:  Solving for Ux, Initial residual = 0.01217970321086979, Final residual = 0.001181392550930849, No Iterations 12
smoothSolver:  Solving for Uy, Initial residual = 0.07025412496518059, Final residual = 0.006257744545970087, No Iterations 13
smoothSolver:  Solving for Uz, Initial residual = 0.0696460384024922, Final residual = 0.006722865683522567, No Iterations 12
[INFO] MomentumPredictor: 1278.465 [ms]
[INFO] MatrixAssemblyPI: 225.341 [ms]
[INFO] MatrixAssemblyPII: 113.43 [ms]
DICPCG:  Solving for p, Initial residual = 0.05817569198908122, Final residual = 0.0005790344543736234, No Iterations 85
[INFO] SolveP: 3144.86 [ms]
time step continuity errors : sum local = 0.005834442542107914, global = 0.0001541395684496728, cumulative = 0.002850565057654465
[INFO] postSolveP: 61.987 [ms]
smoothSolver:  Solving for nuTilda, Initial residual = 0.01963902010916514, Final residual = 0.001174709878841208, No Iterations 3
[INFO] TimeStep: 7349.508 [ms]
ExecutionTime = 456.92 s  ClockTime = 459 s

Time = 41

velocityDampingConstraint velocityDamping damped 0 (0%) of cells, with max limit 300
[INFO] MatrixAssemblyU: 1574.085 [ms]
smoothSolver:  Solving for Ux, Initial residual = 0.01210528263241862, Final residual = 0.001191252522607123, No Iterations 12
smoothSolver:  Solving for Uy, Initial residual = 0.07085270198682335, Final residual = 0.006419155973064266, No Iterations 13
smoothSolver:  Solving for Uz, Initial residual = 0.07081523659073763, Final residual = 0.006935317093173877, No Iterations 12
[INFO] MomentumPredictor: 1279.25 [ms]
[INFO] MatrixAssemblyPI: 224.57 [ms]
[INFO] MatrixAssemblyPII: 113.803 [ms]
DICPCG:  Solving for p, Initial residual = 0.05763455776018345, Final residual = 0.0005743640435993534, No Iterations 81
[INFO] SolveP: 2991.687 [ms]
time step continuity errors : sum local = 0.005792992821102193, global = 2.964537467332023e-05, cumulative = 0.002880210432327785
[INFO] postSolveP: 62.234 [ms]
smoothSolver:  Solving for nuTilda, Initial residual = 0.01293322330153978, Final residual = 0.00116661941702524, No Iterations 3
[INFO] TimeStep: 7201.273 [ms]
ExecutionTime = 465.38 s  ClockTime = 467 s

Time = 42

velocityDampingConstraint velocityDamping damped 0 (0%) of cells, with max limit 300
[INFO] MatrixAssemblyU: 1576.367 [ms]
smoothSolver:  Solving for Ux, Initial residual = 0.01214365727754481, Final residual = 0.001198233710952504, No Iterations 12
smoothSolver:  Solving for Uy, Initial residual = 0.07135049193109774, Final residual = 0.006606833395140234, No Iterations 13
smoothSolver:  Solving for Uz, Initial residual = 0.07137164991584501, Final residual = 0.007118421845550418, No Iterations 12
[INFO] MomentumPredictor: 1278.925 [ms]
[INFO] MatrixAssemblyPI: 224.869 [ms]
[INFO] MatrixAssemblyPII: 113.482 [ms]
DICPCG:  Solving for p, Initial residual = 0.05709257261014723, Final residual = 0.0005632847295574295, No Iterations 81
[INFO] SolveP: 3001.405 [ms]
time step continuity errors : sum local = 0.005676357819958154, global = -0.0001314730041524831, cumulative = 0.002748737428175302
[INFO] postSolveP: 62.209 [ms]
smoothSolver:  Solving for nuTilda, Initial residual = 0.01863060962546576, Final residual = 0.001118538653428058, No Iterations 3
[INFO] TimeStep: 7212.424 [ms]
ExecutionTime = 473.84 s  ClockTime = 476 s

Time = 43

velocityDampingConstraint velocityDamping damped 0 (0%) of cells, with max limit 300
[INFO] MatrixAssemblyU: 1579.256 [ms]
smoothSolver:  Solving for Ux, Initial residual = 0.01203700162174795, Final residual = 0.001024985567958697, No Iterations 13
smoothSolver:  Solving for Uy, Initial residual = 0.07207554961468823, Final residual = 0.006826922581709429, No Iterations 13
smoothSolver:  Solving for Uz, Initial residual = 0.07120692032149561, Final residual = 0.00617211961159374, No Iterations 13
[INFO] MomentumPredictor: 1334.275 [ms]
[INFO] MatrixAssemblyPI: 224.215 [ms]
[INFO] MatrixAssemblyPII: 113.751 [ms]
DICPCG:  Solving for p, Initial residual = 0.05632571401097398, Final residual = 0.0005425581191446734, No Iterations 82
[INFO] SolveP: 3027.378 [ms]
time step continuity errors : sum local = 0.00544971864301352, global = -0.0003368594032400505, cumulative = 0.002411878024935251
[INFO] postSolveP: 62.158 [ms]
smoothSolver:  Solving for nuTilda, Initial residual = 0.01239845236297872, Final residual = 0.001109167317021499, No Iterations 3
[INFO] TimeStep: 7296.227 [ms]
ExecutionTime = 482.39 s  ClockTime = 484 s

Time = 44

velocityDampingConstraint velocityDamping damped 0 (0%) of cells, with max limit 300
[INFO] MatrixAssemblyU: 1578.251 [ms]
smoothSolver:  Solving for Ux, Initial residual = 0.01203855823229716, Final residual = 0.001033215305929622, No Iterations 13
smoothSolver:  Solving for Uy, Initial residual = 0.0725660398055101, Final residual = 0.007044820655043207, No Iterations 13
smoothSolver:  Solving for Uz, Initial residual = 0.07042871887102678, Final residual = 0.006234117722099729, No Iterations 13
[INFO] MomentumPredictor: 1336.853 [ms]
[INFO] MatrixAssemblyPI: 225.124 [ms]
[INFO] MatrixAssemblyPII: 113.285 [ms]
DICPCG:  Solving for p, Initial residual = 0.05566657593667894, Final residual = 0.0005552089102875338, No Iterations 84
[INFO] SolveP: 3112.468 [ms]
time step continuity errors : sum local = 0.005536958077749355, global = -0.0005842964612819225, cumulative = 0.001827581563653329
[INFO] postSolveP: 61.679 [ms]
smoothSolver:  Solving for nuTilda, Initial residual = 0.01767545070392795, Final residual = 0.001065210603963408, No Iterations 3
[INFO] TimeStep: 7384.042 [ms]
ExecutionTime = 491.04 s  ClockTime = 493 s

Time = 45

velocityDampingConstraint velocityDamping damped 0 (0%) of cells, with max limit 300
[INFO] MatrixAssemblyU: 1577.27 [ms]
smoothSolver:  Solving for Ux, Initial residual = 0.01189092207574708, Final residual = 0.001042353074356461, No Iterations 13
smoothSolver:  Solving for Uy, Initial residual = 0.07266044955872687, Final residual = 0.007180200535244555, No Iterations 13
smoothSolver:  Solving for Uz, Initial residual = 0.0693878626450332, Final residual = 0.006281061870078269, No Iterations 13
[INFO] MomentumPredictor: 1337.233 [ms]
[INFO] MatrixAssemblyPI: 224.559 [ms]
[INFO] MatrixAssemblyPII: 113.527 [ms]
DICPCG:  Solving for p, Initial residual = 0.05512048701536144, Final residual = 0.0005489436318052868, No Iterations 89
[INFO] SolveP: 3285.818 [ms]
time step continuity errors : sum local = 0.005415163233943354, global = -0.0008159149452630802, cumulative = 0.001011666618390249
[INFO] postSolveP: 62.564 [ms]
smoothSolver:  Solving for nuTilda, Initial residual = 0.01184642542870443, Final residual = 0.001054335999013704, No Iterations 3
[INFO] TimeStep: 7556.473 [ms]
ExecutionTime = 499.85 s  ClockTime = 502 s

Time = 46

velocityDampingConstraint velocityDamping damped 0 (0%) of cells, with max limit 300
[INFO] MatrixAssemblyU: 1577.411 [ms]
smoothSolver:  Solving for Ux, Initial residual = 0.01176419435027151, Final residual = 0.001047079922087909, No Iterations 13
smoothSolver:  Solving for Uy, Initial residual = 0.07248127423723703, Final residual = 0.007239408397798488, No Iterations 13
smoothSolver:  Solving for Uz, Initial residual = 0.06809173057582665, Final residual = 0.00633097307968421, No Iterations 13
[INFO] MomentumPredictor: 1335.671 [ms]
[INFO] MatrixAssemblyPI: 224.982 [ms]
[INFO] MatrixAssemblyPII: 115.829 [ms]
DICPCG:  Solving for p, Initial residual = 0.0542447838636676, Final residual = 0.0005423009392599921, No Iterations 104
[INFO] SolveP: 3837.975 [ms]
time step continuity errors : sum local = 0.005300574615751169, global = -0.0009715935964983653, cumulative = 4.007302189188344e-05
[INFO] postSolveP: 62.538 [ms]
smoothSolver:  Solving for nuTilda, Initial residual = 0.01678150425392666, Final residual = 0.001015912752505384, No Iterations 3
[INFO] TimeStep: 8109.709 [ms]
ExecutionTime = 509.22 s  ClockTime = 511 s

Time = 47

velocityDampingConstraint velocityDamping damped 0 (0%) of cells, with max limit 300
[INFO] MatrixAssemblyU: 1578.045 [ms]
smoothSolver:  Solving for Ux, Initial residual = 0.01152245202254308, Final residual = 0.001051483974766609, No Iterations 13
smoothSolver:  Solving for Uy, Initial residual = 0.07226800438392963, Final residual = 0.006204195582039668, No Iterations 14
smoothSolver:  Solving for Uz, Initial residual = 0.06667438098158152, Final residual = 0.006365334838615485, No Iterations 13
[INFO] MomentumPredictor: 1366.24 [ms]
[INFO] MatrixAssemblyPI: 223.77 [ms]
[INFO] MatrixAssemblyPII: 113.353 [ms]
DICPCG:  Solving for p, Initial residual = 0.05369261050175219, Final residual = 0.0005308962688812481, No Iterations 213
[INFO] SolveP: 7812.027 [ms]
time step continuity errors : sum local = 0.005148221105446566, global = -0.0003433217882594339, cumulative = -0.0003032487663675504
[INFO] postSolveP: 62.577 [ms]
smoothSolver:  Solving for nuTilda, Initial residual = 0.01131814756784981, Final residual = 0.001006565752447396, No Iterations 3
[INFO] TimeStep: 12112.279 [ms]
ExecutionTime = 522.5700000000001 s  ClockTime = 525 s

Time = 48

velocityDampingConstraint velocityDamping damped 0 (0%) of cells, with max limit 300
[INFO] MatrixAssemblyU: 1576.496 [ms]
smoothSolver:  Solving for Ux, Initial residual = 0.01165771521809082, Final residual = 0.001058687967292586, No Iterations 13
smoothSolver:  Solving for Uy, Initial residual = 0.07196990868232195, Final residual = 0.006162451811396377, No Iterations 14
smoothSolver:  Solving for Uz, Initial residual = 0.06571040501845929, Final residual = 0.00636459982871674, No Iterations 13
[INFO] MomentumPredictor: 1364.435 [ms]
[INFO] MatrixAssemblyPI: 225.261 [ms]
[INFO] MatrixAssemblyPII: 113.547 [ms]
DICPCG:  Solving for p, Initial residual = 0.05478045767389286, Final residual = 0.000527092633382315, No Iterations 85
[INFO] SolveP: 3141.298 [ms]
time step continuity errors : sum local = 0.004915144740567786, global = 0.000424543941211683, cumulative = 0.0001212951748441326
[INFO] postSolveP: 61.846 [ms]
smoothSolver:  Solving for nuTilda, Initial residual = 0.01599147619838851, Final residual = 0.000974455848570339, No Iterations 3
[INFO] TimeStep: 7438.488 [ms]
ExecutionTime = 531.26 s  ClockTime = 533 s

Time = 49

velocityDampingConstraint velocityDamping damped 0 (0%) of cells, with max limit 300
[INFO] MatrixAssemblyU: 1574.685 [ms]
smoothSolver:  Solving for Ux, Initial residual = 0.01151455899649237, Final residual = 0.00106114920961718, No Iterations 13
smoothSolver:  Solving for Uy, Initial residual = 0.07084717657771263, Final residual = 0.006107471223215613, No Iterations 14
smoothSolver:  Solving for Uz, Initial residual = 0.06451811807420967, Final residual = 0.00633248893480356, No Iterations 13
[INFO] MomentumPredictor: 1368.542 [ms]
[INFO] MatrixAssemblyPI: 224.173 [ms]
[INFO] MatrixAssemblyPII: 113.713 [ms]
DICPCG:  Solving for p, Initial residual = 0.05402604162716423, Final residual = 0.0005310303469967759, No Iterations 93
[INFO] SolveP: 3431.489 [ms]
time step continuity errors : sum local = 0.004929360019989928, global = 0.0009508596077369409, cumulative = 0.001072154782581074
[INFO] postSolveP: 62.58 [ms]
smoothSolver:  Solving for nuTilda, Initial residual = 0.01086972803871187, Final residual = 0.0009685421871941735, No Iterations 3
[INFO] TimeStep: 7729.508 [ms]
ExecutionTime = 540.25 s  ClockTime = 542 s

Time = 50

velocityDampingConstraint velocityDamping damped 0 (0%) of cells, with max limit 300
[INFO] MatrixAssemblyU: 1574.029 [ms]
smoothSolver:  Solving for Ux, Initial residual = 0.01149799907212193, Final residual = 0.001062212105782676, No Iterations 13
smoothSolver:  Solving for Uy, Initial residual = 0.0697115277899599, Final residual = 0.006028209116132531, No Iterations 14
smoothSolver:  Solving for Uz, Initial residual = 0.06367060220964142, Final residual = 0.006312675919224025, No Iterations 13
[INFO] MomentumPredictor: 1367.309 [ms]
[INFO] MatrixAssemblyPI: 224.882 [ms]
[INFO] MatrixAssemblyPII: 113.559 [ms]
DICPCG:  Solving for p, Initial residual = 0.05328773334279165, Final residual = 0.0005314084567653279, No Iterations 123
[INFO] SolveP: 4525.55 [ms]
time step continuity errors : sum local = 0.00492512388481564, global = 0.0009406969290790701, cumulative = 0.002012851711660144
[INFO] postSolveP: 61.981 [ms]
smoothSolver:  Solving for nuTilda, Initial residual = 0.01530050064689116, Final residual = 0.0009417488621844673, No Iterations 3
[INFO] TimeStep: 8822.714 [ms]
ExecutionTime = 550.3200000000001 s  ClockTime = 553 s

End

Finalising parallel run
