/*---------------------------------------------------------------------------*\
| =========                 |                                                 |
| \\      /  F ield         | OpenFOAM: The Open Source CFD Toolbox           |
|  \\    /   O peration     | Version:  v2106                                 |
|   \\  /    A nd           | Website:  www.openfoam.com                      |
|    \\/     M anipulation  |                                                 |
\*---------------------------------------------------------------------------*/
Build  : f815a12bba-20210902 OPENFOAM=2106
Arch   : "LSB;label=32;scalar=64"
Exec   : icoFoam -parallel -case /home/greole/data/code/exasim_project/micro_benchmarks/LidDrivenCavity3D/workspace/0e049029694e0630541fb7febb30db37/case
Date   : Jun 26 2023
Time   : 15:12:27
Host   : nla-gpu2.ianm.kit.edu
PID    : 52421
I/O    : uncollated
Case   : /home/greole/data/code/exasim_project/micro_benchmarks/LidDrivenCavity3D/workspace/0e049029694e0630541fb7febb30db37/case
nProcs : 8
Hosts  :
(
    (nla-gpu2.ianm.kit.edu 8)
)
Pstream initialized with:
    floatTransfer      : 0
    nProcsSimpleSum    : 0
    commsType          : nonBlocking
    polling iterations : 0
trapFpe: Floating point exception trapping enabled (FOAM_SIGFPE).
fileModificationChecking : Monitoring run-time modified files using timeStampMaster (fileModificationSkew 5, maxFileModificationPolls 20)
allowSystemOperations : Allowing user-supplied system call operations

// * * * * * * * * * * * * * * * * * * * * * * * * * * * * * * * * * * * * * //
Create time

--> FOAM Warning : 
    From void* Foam::dlLibraryTable::openLibrary(const Foam::fileName&, bool)
    in file db/dynamicLibrary/dlLibraryTable/dlLibraryTable.C at line 188
    Could not load "libpetscFoam.so"
libpetscFoam.so: cannot open shared object file: No such file or directory
--> FOAM Warning : 
    From virtual void Foam::Time::readDict()
    in file db/Time/TimeIO.C at line 411
    Reading "/home/greole/data/code/exasim_project/micro_benchmarks/LidDrivenCavity3D/workspace/0e049029694e0630541fb7febb30db37/case/system/controlDict" at line 17 to 47
    Disabled binary format compression (inefficient/ineffective)
Create mesh for time = 0


PISO: Operating solver in PISO mode

Reading transportProperties

Reading field p

Reading field U

Reading/calculating face flux field phi


Starting time loop

Time = 0.0005

Courant Number mean: 8.62851e-18 max: 8.67362e-15
[INFO] MatrixAssemblyU: 30.669 [ms]
DILUPBiCGStab:  Solving for Ux, Initial residual = 1, Final residual = 0.0025649, No Iterations 5
DILUPBiCGStab:  Solving for Uy:  solution singularity
DILUPBiCGStab:  Solving for Uz:  solution singularity
[INFO] MomentumPredictor: 109.061 [ms]
[INFO] MatrixAssemblyPI: 31.805 [ms]
[INFO] AdjustPhi: 2.529 [ms]
[INFO] ConstrainPressure: 0.004 [ms]
[INFO] MatrixAssemblyPII: 12.117 [ms]
[OGL LOG][lduLduBase.H:122] Initialising OGL
	OGL commit:  b92e557
	Branch: cyclic 
	Build type: Release
	Ginkgo version: 1.5.0 ( develop)
	Ginkgo commit: 4292ffdee
	MPI is GPU aware: 1
	Forces host buffer based communication: 1
	CPU ranks per GPU: 1
	Matrix format: Coo
	End OGL_INFO
[OGL LOG][Proc: 0]: global_index_init: 22.748 [ms]
[OGL LOG][Proc: 0]p_local_cols: call_init: 0.025 [ms]
[OGL LOG][Proc: 0]p_local_rows: call_init: 0.012 [ms]
[OGL LOG][Proc: 0]p_local_ldu_map: call_init: 0.007 [ms]
[OGL LOG][Proc: 0]p_local_coeffs: call_init: 0.011 [ms]
[OGL LOG][Proc: 0]p_non_local_cols: call_init: 0.004 [ms]
[OGL LOG][Proc: 0]p_non_local_rows: call_init: 0.002 [ms]
[OGL LOG][Proc: 0]p_non_local_ldu_map: call_init: 0.002 [ms]
[OGL LOG][Proc: 0]p_non_local_coeffs: call_init: 0.002 [ms]
[OGL LOG][Proc: 0]p: init_local_sparsity_pattern: 21.075 [ms]
[OGL LOG][Proc: 0]p: init_non_local_sparsity_pattern: 7.049 [ms]
[OGL LOG][Proc: 0]p: update_local_matrix_data: 5.309 [ms]
[OGL LOG][Proc: 0]p: update_non_local_matrix_data: 0.112 [ms]
[OGL LOG][Proc: 0]device_partition: call_init: 0.689 [ms]
[OGL LOG][Proc: 0]p_matrix: call_init: 76.306 [ms]
[OGL LOG][Proc: 0]p_rhs: call_init: 0.252 [ms]
[OGL LOG][Proc: 0]p_solution: call_init: 0.404 [ms]
[OGL LOG][Proc: 0]p: init_precond: 0.064 [ms]
[OGL LOG][StoppingCriterion.H:372] Creating stopping criterion with minIter 0 frequency 1
[OGL LOG][Proc: 0]p: generate_solver: 0.027 [ms]
[OGL LOG][Proc: 0]p: solve: 630.457 [ms]
[OGL LOG][Proc: 0]p: copy_x_back: 0.397 [ms]
[OGL LOG][lduLduBase.H:339] 
Statistics:
	Time per iteration: 795 [mu s]
	Time per residual norm calculation: 1097.000000 [mu s]
	Time per iteration and DOF: 0.795000 [ns]
	Retrieve results bandwidth 2.518000 [GByte/s]
[OGL LOG][Proc: 0]p: solve_multi_gpu: 708.913 [ms]
nonehipGKOCG:  Solving for p, Initial residual = 1, Final residual = 9.98812e-05, No Iterations 793
[INFO] SolveP: 1221.65 [ms]
time step continuity errors : sum local = 2.1446e-08, global = 1.79114e-21, cumulative = 1.79114e-21
[INFO] ContinuityError: 5.542 [ms]
[INFO] CorrectBoundary: 0.275 [ms]
[INFO] PISOStep: 1289.86 [ms]
[INFO] MatrixAssemblyPI: 33.659 [ms]
[INFO] AdjustPhi: 5.872 [ms]
[INFO] ConstrainPressure: 0.002 [ms]
[INFO] MatrixAssemblyPII: 8.762 [ms]
[OGL LOG][Proc: 0]: global_index_init: 0.073 [ms]
[OGL LOG][Proc: 0]p_local_coeffs: call_update: 0.001 [ms]
[OGL LOG][Proc: 0]p_non_local_coeffs: call_update: 0 [ms]
[OGL LOG][Proc: 0]p: update_local_matrix_data: 5.067 [ms]
[OGL LOG][Proc: 0]p: update_non_local_matrix_data: 0.084 [ms]
[OGL LOG][Proc: 0]p_matrix: call_update: 2.684 [ms]
[OGL LOG][Proc: 0]p_rhs: call_update: 0.458 [ms]
[OGL LOG][Proc: 0]p: init_precond: 0.038 [ms]
[OGL LOG][StoppingCriterion.H:372] Creating stopping criterion with minIter 0 frequency 1
[OGL LOG][Proc: 0]p: generate_solver: 0.001 [ms]
[OGL LOG][Proc: 0]p: solve: 601.259 [ms]
[OGL LOG][Proc: 0]p: copy_x_back: 0.362 [ms]
[OGL LOG][lduLduBase.H:339] 
Statistics:
	Time per iteration: 768 [mu s]
	Time per residual norm calculation: 180.000000 [mu s]
	Time per iteration and DOF: 0.768000 [ns]
	Retrieve results bandwidth 2.762000 [GByte/s]
[OGL LOG][Proc: 0]p: solve_multi_gpu: 605.03 [ms]
nonehipGKOCG:  Solving for p, Initial residual = 0.731052, Final residual = 9.87978e-05, No Iterations 782
[INFO] SolveP: 611.874 [ms]
time step continuity errors : sum local = 2.80131e-08, global = 1.43221e-21, cumulative = 3.22335e-21
[INFO] ContinuityError: 8.448 [ms]
[INFO] CorrectBoundary: 0.579 [ms]
[INFO] PISOStep: 686.583 [ms]
[INFO] TimeStep: 2122.46 [ms]
ExecutionTime = 2.38 s  ClockTime = 3 s

Time = 0.001

Courant Number mean: 0.0215341 max: 0.377097
[INFO] MatrixAssemblyU: 28.628 [ms]
DILUPBiCGStab:  Solving for Ux, Initial residual = 0.150351, Final residual = 0.00113128, No Iterations 5
DILUPBiCGStab:  Solving for Uy, Initial residual = 0.368162, Final residual = 0.00224404, No Iterations 5
DILUPBiCGStab:  Solving for Uz, Initial residual = 0.988636, Final residual = 0.00605697, No Iterations 5
[INFO] MomentumPredictor: 179.39 [ms]
[INFO] MatrixAssemblyPI: 26.951 [ms]
[INFO] AdjustPhi: 3.237 [ms]
[INFO] ConstrainPressure: 0.002 [ms]
[INFO] MatrixAssemblyPII: 7.265 [ms]
[OGL LOG][Proc: 0]: global_index_init: 0.043 [ms]
[OGL LOG][Proc: 0]p_local_coeffs: call_update: 0 [ms]
[OGL LOG][Proc: 0]p_non_local_coeffs: call_update: 0 [ms]
[OGL LOG][Proc: 0]p: update_local_matrix_data: 5.129 [ms]
[OGL LOG][Proc: 0]p: update_non_local_matrix_data: 0.077 [ms]
[OGL LOG][Proc: 0]p_matrix: call_update: 2.471 [ms]
[OGL LOG][Proc: 0]p_rhs: call_update: 0.957 [ms]
[OGL LOG][Proc: 0]p: init_precond: 0.032 [ms]
[OGL LOG][StoppingCriterion.H:372] Creating stopping criterion with minIter 469 frequency 8
[OGL LOG][Proc: 0]p: generate_solver: 0.002 [ms]
[OGL LOG][Proc: 0]p: solve: 469.876 [ms]
[OGL LOG][Proc: 0]p: copy_x_back: 0.365 [ms]
[OGL LOG][lduLduBase.H:339] 
Statistics:
	Time per iteration: 604 [mu s]
	Time per residual norm calculation: 187.000000 [mu s]
	Time per iteration and DOF: 0.604000 [ns]
	Retrieve results bandwidth 2.739000 [GByte/s]
[OGL LOG][Proc: 0]p: solve_multi_gpu: 473.9 [ms]
nonehipGKOCG:  Solving for p, Initial residual = 0.690613, Final residual = 9.16316e-05, No Iterations 777
[INFO] SolveP: 480.627 [ms]
time step continuity errors : sum local = 2.90739e-08, global = -6.80423e-21, cumulative = -3.58088e-21
[INFO] ContinuityError: 5.707 [ms]
[INFO] CorrectBoundary: 0.421 [ms]
[INFO] PISOStep: 538.683 [ms]
[INFO] MatrixAssemblyPI: 21.157 [ms]
[INFO] AdjustPhi: 6.316 [ms]
[INFO] ConstrainPressure: 0.002 [ms]
[INFO] MatrixAssemblyPII: 8.77 [ms]
[OGL LOG][Proc: 0]: global_index_init: 0.019 [ms]
[OGL LOG][Proc: 0]p_local_coeffs: call_update: 0 [ms]
[OGL LOG][Proc: 0]p_non_local_coeffs: call_update: 0 [ms]
[OGL LOG][Proc: 0]p: update_local_matrix_data: 4.724 [ms]
[OGL LOG][Proc: 0]p: update_non_local_matrix_data: 0.057 [ms]
[OGL LOG][Proc: 0]p_matrix: call_update: 2.113 [ms]
[OGL LOG][Proc: 0]p_rhs: call_update: 1.263 [ms]
[OGL LOG][Proc: 0]p: init_precond: 0.033 [ms]
[OGL LOG][StoppingCriterion.H:372] Creating stopping criterion with minIter 466 frequency 10
[OGL LOG][Proc: 0]p: generate_solver: 0.002 [ms]
[OGL LOG][Proc: 0]p: solve: 486.698 [ms]
[OGL LOG][Proc: 0]p: copy_x_back: 0.559 [ms]
[OGL LOG][lduLduBase.H:339] 
Statistics:
	Time per iteration: 623 [mu s]
	Time per residual norm calculation: 188.000000 [mu s]
	Time per iteration and DOF: 0.623000 [ns]
	Retrieve results bandwidth 1.788000 [GByte/s]
[OGL LOG][Proc: 0]p: solve_multi_gpu: 490.875 [ms]
nonehipGKOCG:  Solving for p, Initial residual = 0.619789, Final residual = 6.81826e-05, No Iterations 781
[INFO] SolveP: 496.819 [ms]
time step continuity errors : sum local = 2.20649e-08, global = 3.63768e-21, cumulative = 5.67911e-23
[INFO] ContinuityError: 2.897 [ms]
[INFO] CorrectBoundary: 0.246 [ms]
[INFO] PISOStep: 549.115 [ms]
[INFO] TimeStep: 1301.01 [ms]
ExecutionTime = 3.64 s  ClockTime = 4 s

Time = 0.0015

Courant Number mean: 0.0324926 max: 0.441243
[INFO] MatrixAssemblyU: 25.384 [ms]
DILUPBiCGStab:  Solving for Ux, Initial residual = 0.0531065, Final residual = 0.000326428, No Iterations 5
DILUPBiCGStab:  Solving for Uy, Initial residual = 0.12468, Final residual = 0.000558075, No Iterations 5
DILUPBiCGStab:  Solving for Uz, Initial residual = 0.575511, Final residual = 0.00312009, No Iterations 5
[INFO] MomentumPredictor: 173.753 [ms]
[INFO] MatrixAssemblyPI: 26.378 [ms]
[INFO] AdjustPhi: 1.704 [ms]
[INFO] ConstrainPressure: 0.001 [ms]
[INFO] MatrixAssemblyPII: 7.084 [ms]
[OGL LOG][Proc: 0]: global_index_init: 0.016 [ms]
[OGL LOG][Proc: 0]p_local_coeffs: call_update: 0 [ms]
[OGL LOG][Proc: 0]p_non_local_coeffs: call_update: 0 [ms]
[OGL LOG][Proc: 0]p: update_local_matrix_data: 5.445 [ms]
[OGL LOG][Proc: 0]p: update_non_local_matrix_data: 0.064 [ms]
[OGL LOG][Proc: 0]p_matrix: call_update: 2.695 [ms]
[OGL LOG][Proc: 0]p_rhs: call_update: 0.395 [ms]
[OGL LOG][Proc: 0]p: init_precond: 0.031 [ms]
[OGL LOG][StoppingCriterion.H:372] Creating stopping criterion with minIter 468 frequency 10
[OGL LOG][Proc: 0]p: generate_solver: 0.002 [ms]
[OGL LOG][Proc: 0]p: solve: 488.346 [ms]
[OGL LOG][Proc: 0]p: copy_x_back: 0.582 [ms]
[OGL LOG][lduLduBase.H:339] 
Statistics:
	Time per iteration: 633 [mu s]
	Time per residual norm calculation: 186.000000 [mu s]
	Time per iteration and DOF: 0.633000 [ns]
	Retrieve results bandwidth 1.718000 [GByte/s]
[OGL LOG][Proc: 0]p: solve_multi_gpu: 492.303 [ms]
nonehipGKOCG:  Solving for p, Initial residual = 0.632523, Final residual = 7.9791e-05, No Iterations 771
[INFO] SolveP: 499.065 [ms]
time step continuity errors : sum local = 1.82768e-08, global = -2.3163e-21, cumulative = -2.25951e-21
[INFO] ContinuityError: 4.393 [ms]
[INFO] CorrectBoundary: 1.009 [ms]
[INFO] PISOStep: 554.446 [ms]
[INFO] MatrixAssemblyPI: 24.515 [ms]
[INFO] AdjustPhi: 3.629 [ms]
[INFO] ConstrainPressure: 0.002 [ms]
[INFO] MatrixAssemblyPII: 7.112 [ms]
[OGL LOG][Proc: 0]: global_index_init: 0.031 [ms]
[OGL LOG][Proc: 0]p_local_coeffs: call_update: 0 [ms]
[OGL LOG][Proc: 0]p_non_local_coeffs: call_update: 0 [ms]
[OGL LOG][Proc: 0]p: update_local_matrix_data: 4.895 [ms]
[OGL LOG][Proc: 0]p: update_non_local_matrix_data: 0.084 [ms]
[OGL LOG][Proc: 0]p_matrix: call_update: 1.974 [ms]
[OGL LOG][Proc: 0]p_rhs: call_update: 1.048 [ms]
[OGL LOG][Proc: 0]p: init_precond: 0.032 [ms]
[OGL LOG][StoppingCriterion.H:372] Creating stopping criterion with minIter 462 frequency 10
[OGL LOG][Proc: 0]p: generate_solver: 0.001 [ms]
[OGL LOG][Proc: 0]p: solve: 449.807 [ms]
[OGL LOG][Proc: 0]p: copy_x_back: 0.393 [ms]
[OGL LOG][lduLduBase.H:339] 
Statistics:
	Time per iteration: 583 [mu s]
	Time per residual norm calculation: 183.000000 [mu s]
	Time per iteration and DOF: 0.583000 [ns]
	Retrieve results bandwidth 2.544000 [GByte/s]
[OGL LOG][Proc: 0]p: solve_multi_gpu: 453.477 [ms]
nonehipGKOCG:  Solving for p, Initial residual = 0.579936, Final residual = 6.78858e-05, No Iterations 771
[INFO] SolveP: 459.656 [ms]
time step continuity errors : sum local = 1.51376e-08, global = 3.95819e-23, cumulative = -2.21993e-21
[INFO] ContinuityError: 2.265 [ms]
[INFO] CorrectBoundary: 0.506 [ms]
[INFO] PISOStep: 511.188 [ms]
[INFO] TimeStep: 1268.42 [ms]
ExecutionTime = 4.9 s  ClockTime = 5 s

Time = 0.002

Courant Number mean: 0.0388942 max: 0.452946
[INFO] MatrixAssemblyU: 23.291 [ms]
DILUPBiCGStab:  Solving for Ux, Initial residual = 0.0318966, Final residual = 0.000167511, No Iterations 5
DILUPBiCGStab:  Solving for Uy, Initial residual = 0.0813674, Final residual = 0.000384959, No Iterations 5
DILUPBiCGStab:  Solving for Uz, Initial residual = 0.273838, Final residual = 0.00118077, No Iterations 5
[INFO] MomentumPredictor: 175.865 [ms]
[INFO] MatrixAssemblyPI: 25.237 [ms]
[INFO] AdjustPhi: 2.74 [ms]
[INFO] ConstrainPressure: 0.002 [ms]
[INFO] MatrixAssemblyPII: 7.243 [ms]
[OGL LOG][Proc: 0]: global_index_init: 0.009 [ms]
[OGL LOG][Proc: 0]p_local_coeffs: call_update: 0 [ms]
[OGL LOG][Proc: 0]p_non_local_coeffs: call_update: 0 [ms]
[OGL LOG][Proc: 0]p: update_local_matrix_data: 5.227 [ms]
[OGL LOG][Proc: 0]p: update_non_local_matrix_data: 0.052 [ms]
[OGL LOG][Proc: 0]p_matrix: call_update: 2.487 [ms]
[OGL LOG][Proc: 0]p_rhs: call_update: 0.858 [ms]
[OGL LOG][Proc: 0]p: init_precond: 0.032 [ms]
[OGL LOG][StoppingCriterion.H:372] Creating stopping criterion with minIter 462 frequency 10
[OGL LOG][Proc: 0]p: generate_solver: 0.002 [ms]
[OGL LOG][Proc: 0]p: solve: 487.486 [ms]
[OGL LOG][Proc: 0]p: copy_x_back: 0.592 [ms]
[OGL LOG][lduLduBase.H:339] 
Statistics:
	Time per iteration: 632 [mu s]
	Time per residual norm calculation: 195.000000 [mu s]
	Time per iteration and DOF: 0.632000 [ns]
	Retrieve results bandwidth 1.689000 [GByte/s]
[OGL LOG][Proc: 0]p: solve_multi_gpu: 491.85 [ms]
nonehipGKOCG:  Solving for p, Initial residual = 0.412434, Final residual = 4.51818e-05, No Iterations 771
[INFO] SolveP: 498.423 [ms]
time step continuity errors : sum local = 8.83519e-09, global = -2.82065e-21, cumulative = -5.04058e-21
[INFO] ContinuityError: 3.889 [ms]
[INFO] CorrectBoundary: 0.263 [ms]
[INFO] PISOStep: 551.755 [ms]
[INFO] MatrixAssemblyPI: 26.926 [ms]
[INFO] AdjustPhi: 1.735 [ms]
[INFO] ConstrainPressure: 0.002 [ms]
[INFO] MatrixAssemblyPII: 7.505 [ms]
[OGL LOG][Proc: 0]: global_index_init: 0.036 [ms]
[OGL LOG][Proc: 0]p_local_coeffs: call_update: 0 [ms]
[OGL LOG][Proc: 0]p_non_local_coeffs: call_update: 0 [ms]
[OGL LOG][Proc: 0]p: update_local_matrix_data: 5.168 [ms]
[OGL LOG][Proc: 0]p: update_non_local_matrix_data: 0.07 [ms]
[OGL LOG][Proc: 0]p_matrix: call_update: 1.924 [ms]
[OGL LOG][Proc: 0]p_rhs: call_update: 0.544 [ms]
[OGL LOG][Proc: 0]p: init_precond: 0.032 [ms]
[OGL LOG][StoppingCriterion.H:372] Creating stopping criterion with minIter 462 frequency 10
[OGL LOG][Proc: 0]p: generate_solver: 0.002 [ms]
[OGL LOG][Proc: 0]p: solve: 450.085 [ms]
[OGL LOG][Proc: 0]p: copy_x_back: 0.378 [ms]
[OGL LOG][lduLduBase.H:339] 
Statistics:
	Time per iteration: 591 [mu s]
	Time per residual norm calculation: 182.000000 [mu s]
	Time per iteration and DOF: 0.591000 [ns]
	Retrieve results bandwidth 2.645000 [GByte/s]
[OGL LOG][Proc: 0]p: solve_multi_gpu: 453.194 [ms]
nonehipGKOCG:  Solving for p, Initial residual = 0.350552, Final residual = 8.88278e-05, No Iterations 761
[INFO] SolveP: 459.524 [ms]
time step continuity errors : sum local = 1.7544e-08, global = -7.36843e-22, cumulative = -5.77742e-21
[INFO] ContinuityError: 3.831 [ms]
[INFO] CorrectBoundary: 0.133 [ms]
[INFO] PISOStep: 512.1 [ms]
[INFO] TimeStep: 1266.9 [ms]
ExecutionTime = 6.13 s  ClockTime = 6 s

Time = 0.0025

Courant Number mean: 0.043947 max: 0.459624
[INFO] MatrixAssemblyU: 23.539 [ms]
DILUPBiCGStab:  Solving for Ux, Initial residual = 0.0235041, Final residual = 0.000104802, No Iterations 5
DILUPBiCGStab:  Solving for Uy, Initial residual = 0.0515221, Final residual = 0.000235041, No Iterations 5
DILUPBiCGStab:  Solving for Uz, Initial residual = 0.0980481, Final residual = 0.000478866, No Iterations 5
[INFO] MomentumPredictor: 175.307 [ms]
[INFO] MatrixAssemblyPI: 24.324 [ms]
[INFO] AdjustPhi: 2.369 [ms]
[INFO] ConstrainPressure: 0.002 [ms]
[INFO] MatrixAssemblyPII: 8.582 [ms]
[OGL LOG][Proc: 0]: global_index_init: 0.09 [ms]
[OGL LOG][Proc: 0]p_local_coeffs: call_update: 0 [ms]
[OGL LOG][Proc: 0]p_non_local_coeffs: call_update: 0 [ms]
[OGL LOG][Proc: 0]p: update_local_matrix_data: 5.383 [ms]
[OGL LOG][Proc: 0]p: update_non_local_matrix_data: 0.046 [ms]
[OGL LOG][Proc: 0]p_matrix: call_update: 2.704 [ms]
[OGL LOG][Proc: 0]p_rhs: call_update: 0.318 [ms]
[OGL LOG][Proc: 0]p: init_precond: 0.033 [ms]
[OGL LOG][StoppingCriterion.H:372] Creating stopping criterion with minIter 456 frequency 10
[OGL LOG][Proc: 0]p: generate_solver: 0.002 [ms]
[OGL LOG][Proc: 0]p: solve: 440.997 [ms]
[OGL LOG][Proc: 0]p: copy_x_back: 0.349 [ms]
[OGL LOG][lduLduBase.H:339] 
Statistics:
	Time per iteration: 603 [mu s]
	Time per residual norm calculation: 184.000000 [mu s]
	Time per iteration and DOF: 0.603000 [ns]
	Retrieve results bandwidth 2.865000 [GByte/s]
[OGL LOG][Proc: 0]p: solve_multi_gpu: 444.597 [ms]
nonehipGKOCG:  Solving for p, Initial residual = 0.314774, Final residual = 8.71157e-05, No Iterations 731
[INFO] SolveP: 451.377 [ms]
time step continuity errors : sum local = 1.40676e-08, global = -5.55084e-21, cumulative = -1.13283e-20
[INFO] ContinuityError: 8.029 [ms]
[INFO] CorrectBoundary: 0.657 [ms]
[INFO] PISOStep: 507.219 [ms]
[INFO] MatrixAssemblyPI: 21.64 [ms]
[INFO] AdjustPhi: 6.679 [ms]
[INFO] ConstrainPressure: 0.001 [ms]
[INFO] MatrixAssemblyPII: 6.064 [ms]
[OGL LOG][Proc: 0]: global_index_init: 0.032 [ms]
[OGL LOG][Proc: 0]p_local_coeffs: call_update: 0 [ms]
[OGL LOG][Proc: 0]p_non_local_coeffs: call_update: 0 [ms]
[OGL LOG][Proc: 0]p: update_local_matrix_data: 4.493 [ms]
[OGL LOG][Proc: 0]p: update_non_local_matrix_data: 0.114 [ms]
[OGL LOG][Proc: 0]p_matrix: call_update: 1.829 [ms]
[OGL LOG][Proc: 0]p_rhs: call_update: 1.453 [ms]
[OGL LOG][Proc: 0]p: init_precond: 0.032 [ms]
[OGL LOG][StoppingCriterion.H:372] Creating stopping criterion with minIter 438 frequency 9
[OGL LOG][Proc: 0]p: generate_solver: 0.002 [ms]
[OGL LOG][Proc: 0]p: solve: 442.645 [ms]
[OGL LOG][Proc: 0]p: copy_x_back: 0.585 [ms]
[OGL LOG][lduLduBase.H:339] 
Statistics:
	Time per iteration: 606 [mu s]
	Time per residual norm calculation: 190.000000 [mu s]
	Time per iteration and DOF: 0.606000 [ns]
	Retrieve results bandwidth 1.709000 [GByte/s]
[OGL LOG][Proc: 0]p: solve_multi_gpu: 446.763 [ms]
nonehipGKOCG:  Solving for p, Initial residual = 0.269272, Final residual = 8.46967e-05, No Iterations 730
[INFO] SolveP: 452.67 [ms]
time step continuity errors : sum local = 1.35758e-08, global = 1.45736e-21, cumulative = -9.8709e-21
[INFO] ContinuityError: 2.247 [ms]
[INFO] CorrectBoundary: 0.211 [ms]
[INFO] PISOStep: 505.546 [ms]
[INFO] TimeStep: 1215.23 [ms]
ExecutionTime = 7.32 s  ClockTime = 8 s

Time = 0.003

Courant Number mean: 0.047987 max: 0.463866
[INFO] MatrixAssemblyU: 25.173 [ms]
DILUPBiCGStab:  Solving for Ux, Initial residual = 0.017888, Final residual = 7.93734e-05, No Iterations 5
DILUPBiCGStab:  Solving for Uy, Initial residual = 0.0401304, Final residual = 0.000115987, No Iterations 5
DILUPBiCGStab:  Solving for Uz, Initial residual = 0.0851264, Final residual = 0.000399398, No Iterations 5
[INFO] MomentumPredictor: 178.655 [ms]
[INFO] MatrixAssemblyPI: 25.79 [ms]
[INFO] AdjustPhi: 2.001 [ms]
[INFO] ConstrainPressure: 0.002 [ms]
[INFO] MatrixAssemblyPII: 8.618 [ms]
[OGL LOG][Proc: 0]: global_index_init: 0.131 [ms]
[OGL LOG][Proc: 0]p_local_coeffs: call_update: 0 [ms]
[OGL LOG][Proc: 0]p_non_local_coeffs: call_update: 0 [ms]
[OGL LOG][Proc: 0]p: update_local_matrix_data: 5.506 [ms]
[OGL LOG][Proc: 0]p: update_non_local_matrix_data: 0.053 [ms]
[OGL LOG][Proc: 0]p_matrix: call_update: 2.697 [ms]
[OGL LOG][Proc: 0]p_rhs: call_update: 0.423 [ms]
[OGL LOG][Proc: 0]p: init_precond: 0.033 [ms]
[OGL LOG][StoppingCriterion.H:372] Creating stopping criterion with minIter 438 frequency 9
[OGL LOG][Proc: 0]p: generate_solver: 0.001 [ms]
[OGL LOG][Proc: 0]p: solve: 418.698 [ms]
[OGL LOG][Proc: 0]p: copy_x_back: 0.381 [ms]
[OGL LOG][lduLduBase.H:339] 
Statistics:
	Time per iteration: 573 [mu s]
	Time per residual norm calculation: 177.000000 [mu s]
	Time per iteration and DOF: 0.573000 [ns]
	Retrieve results bandwidth 2.624000 [GByte/s]
[OGL LOG][Proc: 0]p: solve_multi_gpu: 422.459 [ms]
nonehipGKOCG:  Solving for p, Initial residual = 0.196879, Final residual = 8.34369e-05, No Iterations 730
[INFO] SolveP: 429.167 [ms]
time step continuity errors : sum local = 1.30115e-08, global = -1.77946e-21, cumulative = -1.16504e-20
[INFO] ContinuityError: 3.393 [ms]
[INFO] CorrectBoundary: 0.134 [ms]
[INFO] PISOStep: 479.773 [ms]
[INFO] MatrixAssemblyPI: 25.626 [ms]
[INFO] AdjustPhi: 0.957 [ms]
[INFO] ConstrainPressure: 0.002 [ms]
[INFO] MatrixAssemblyPII: 8.07 [ms]
[OGL LOG][Proc: 0]: global_index_init: 0.112 [ms]
[OGL LOG][Proc: 0]p_local_coeffs: call_update: 0 [ms]
[OGL LOG][Proc: 0]p_non_local_coeffs: call_update: 0 [ms]
[OGL LOG][Proc: 0]p: update_local_matrix_data: 5.171 [ms]
[OGL LOG][Proc: 0]p: update_non_local_matrix_data: 0.072 [ms]
[OGL LOG][Proc: 0]p_matrix: call_update: 2.467 [ms]
[OGL LOG][Proc: 0]p_rhs: call_update: 0.295 [ms]
[OGL LOG][Proc: 0]p: init_precond: 0.033 [ms]
[OGL LOG][StoppingCriterion.H:372] Creating stopping criterion with minIter 438 frequency 9
[OGL LOG][Proc: 0]p: generate_solver: 0.002 [ms]
[OGL LOG][Proc: 0]p: solve: 420.725 [ms]
[OGL LOG][Proc: 0]p: copy_x_back: 0.357 [ms]
[OGL LOG][lduLduBase.H:339] 
Statistics:
	Time per iteration: 583 [mu s]
	Time per residual norm calculation: 174.000000 [mu s]
	Time per iteration and DOF: 0.583000 [ns]
	Retrieve results bandwidth 2.801000 [GByte/s]
[OGL LOG][Proc: 0]p: solve_multi_gpu: 424.088 [ms]
nonehipGKOCG:  Solving for p, Initial residual = 0.163648, Final residual = 8.88641e-05, No Iterations 721
[INFO] SolveP: 430.489 [ms]
time step continuity errors : sum local = 1.38706e-08, global = -3.18576e-21, cumulative = -1.48361e-20
[INFO] ContinuityError: 3.818 [ms]
[INFO] CorrectBoundary: 0.2 [ms]
[INFO] PISOStep: 481.359 [ms]
[INFO] TimeStep: 1168.3 [ms]
ExecutionTime = 8.48 s  ClockTime = 9 s

Time = 0.0035

Courant Number mean: 0.0513959 max: 0.466746
[INFO] MatrixAssemblyU: 23.886 [ms]
DILUPBiCGStab:  Solving for Ux, Initial residual = 0.0146333, Final residual = 5.75427e-05, No Iterations 5
DILUPBiCGStab:  Solving for Uy, Initial residual = 0.0317656, Final residual = 9.93793e-05, No Iterations 5
DILUPBiCGStab:  Solving for Uz, Initial residual = 0.0565996, Final residual = 0.000245883, No Iterations 5
[INFO] MomentumPredictor: 189.834 [ms]
[INFO] MatrixAssemblyPI: 22.756 [ms]
[INFO] AdjustPhi: 3.9 [ms]
[INFO] ConstrainPressure: 0.001 [ms]
[INFO] MatrixAssemblyPII: 7.239 [ms]
[OGL LOG][Proc: 0]: global_index_init: 0.024 [ms]
[OGL LOG][Proc: 0]p_local_coeffs: call_update: 0 [ms]
[OGL LOG][Proc: 0]p_non_local_coeffs: call_update: 0 [ms]
[OGL LOG][Proc: 0]p: update_local_matrix_data: 4.817 [ms]
[OGL LOG][Proc: 0]p: update_non_local_matrix_data: 0.079 [ms]
[OGL LOG][Proc: 0]p_matrix: call_update: 1.882 [ms]
[OGL LOG][Proc: 0]p_rhs: call_update: 1.353 [ms]
[OGL LOG][Proc: 0]p: init_precond: 0.032 [ms]
[OGL LOG][StoppingCriterion.H:372] Creating stopping criterion with minIter 432 frequency 9
[OGL LOG][Proc: 0]p: generate_solver: 0.002 [ms]
[OGL LOG][Proc: 0]p: solve: 275.634 [ms]
[OGL LOG][Proc: 0]p: copy_x_back: 0.569 [ms]
[OGL LOG][lduLduBase.H:339] 
Statistics:
	Time per iteration: 599 [mu s]
	Time per residual norm calculation: 177.000000 [mu s]
	Time per iteration and DOF: 0.599000 [ns]
	Retrieve results bandwidth 1.757000 [GByte/s]
[OGL LOG][Proc: 0]p: solve_multi_gpu: 279.68 [ms]
nonehipGKOCG:  Solving for p, Initial residual = 0.139352, Final residual = 9.34789e-05, No Iterations 460
[INFO] SolveP: 285.833 [ms]
time step continuity errors : sum local = 1.51409e-08, global = -4.26039e-21, cumulative = -1.90965e-20
[INFO] ContinuityError: 3.364 [ms]
[INFO] CorrectBoundary: 0.167 [ms]
[INFO] PISOStep: 342.574 [ms]
[INFO] MatrixAssemblyPI: 24.694 [ms]
[INFO] AdjustPhi: 1.004 [ms]
[INFO] ConstrainPressure: 0.001 [ms]
[INFO] MatrixAssemblyPII: 8.556 [ms]
[OGL LOG][Proc: 0]: global_index_init: 0.075 [ms]
[OGL LOG][Proc: 0]p_local_coeffs: call_update: 0 [ms]
[OGL LOG][Proc: 0]p_non_local_coeffs: call_update: 0 [ms]
[OGL LOG][Proc: 0]p: update_local_matrix_data: 5.23 [ms]
[OGL LOG][Proc: 0]p: update_non_local_matrix_data: 0.06 [ms]
[OGL LOG][Proc: 0]p_matrix: call_update: 2.61 [ms]
[OGL LOG][Proc: 0]p_rhs: call_update: 0.202 [ms]
[OGL LOG][Proc: 0]p: init_precond: 0.032 [ms]
[OGL LOG][StoppingCriterion.H:372] Creating stopping criterion with minIter 276 frequency 7
[OGL LOG][Proc: 0]p: generate_solver: 0.002 [ms]
[OGL LOG][Proc: 0]p: solve: 191.806 [ms]
[OGL LOG][Proc: 0]p: copy_x_back: 0.361 [ms]
[OGL LOG][lduLduBase.H:339] 
Statistics:
	Time per iteration: 581 [mu s]
	Time per residual norm calculation: 174.000000 [mu s]
	Time per iteration and DOF: 0.581000 [ns]
	Retrieve results bandwidth 2.770000 [GByte/s]
[OGL LOG][Proc: 0]p: solve_multi_gpu: 195.228 [ms]
nonehipGKOCG:  Solving for p, Initial residual = 0.11647, Final residual = 9.64885e-05, No Iterations 330
[INFO] SolveP: 201.617 [ms]
time step continuity errors : sum local = 1.46648e-08, global = -3.78859e-21, cumulative = -2.28851e-20
[INFO] ContinuityError: 2.542 [ms]
[INFO] CorrectBoundary: 1.071 [ms]
[INFO] PISOStep: 249.576 [ms]
[INFO] TimeStep: 810.172 [ms]
ExecutionTime = 9.28 s  ClockTime = 10 s

Time = 0.004

Courant Number mean: 0.0543347 max: 0.468955
[INFO] MatrixAssemblyU: 23.609 [ms]
DILUPBiCGStab:  Solving for Ux, Initial residual = 0.0122754, Final residual = 4.5113e-05, No Iterations 5
DILUPBiCGStab:  Solving for Uy, Initial residual = 0.0265305, Final residual = 6.38656e-05, No Iterations 5
DILUPBiCGStab:  Solving for Uz, Initial residual = 0.0511228, Final residual = 0.000171376, No Iterations 5
[INFO] MomentumPredictor: 182.362 [ms]
[INFO] MatrixAssemblyPI: 24.643 [ms]
[INFO] AdjustPhi: 2.521 [ms]
[INFO] ConstrainPressure: 0.001 [ms]
[INFO] MatrixAssemblyPII: 8.316 [ms]
[OGL LOG][Proc: 0]: global_index_init: 0.082 [ms]
[OGL LOG][Proc: 0]p_local_coeffs: call_update: 0 [ms]
[OGL LOG][Proc: 0]p_non_local_coeffs: call_update: 0 [ms]
[OGL LOG][Proc: 0]p: update_local_matrix_data: 5.267 [ms]
[OGL LOG][Proc: 0]p: update_non_local_matrix_data: 0.051 [ms]
[OGL LOG][Proc: 0]p_matrix: call_update: 2.375 [ms]
[OGL LOG][Proc: 0]p_rhs: call_update: 0.803 [ms]
[OGL LOG][Proc: 0]p: init_precond: 0.032 [ms]
[OGL LOG][StoppingCriterion.H:372] Creating stopping criterion with minIter 198 frequency 6
[OGL LOG][Proc: 0]p: generate_solver: 0.002 [ms]
[OGL LOG][Proc: 0]p: solve: 199.656 [ms]
[OGL LOG][Proc: 0]p: copy_x_back: 0.368 [ms]
[OGL LOG][lduLduBase.H:339] 
Statistics:
	Time per iteration: 614 [mu s]
	Time per residual norm calculation: 197.000000 [mu s]
	Time per iteration and DOF: 0.614000 [ns]
	Retrieve results bandwidth 2.717000 [GByte/s]
[OGL LOG][Proc: 0]p: solve_multi_gpu: 203.47 [ms]
nonehipGKOCG:  Solving for p, Initial residual = 0.0908729, Final residual = 9.43067e-05, No Iterations 325
[INFO] SolveP: 209.8 [ms]
time step continuity errors : sum local = 1.3718e-08, global = -6.76437e-21, cumulative = -2.96495e-20
[INFO] ContinuityError: 3.829 [ms]
[INFO] CorrectBoundary: 0.311 [ms]
[INFO] PISOStep: 261.103 [ms]
[INFO] MatrixAssemblyPI: 24.552 [ms]
[INFO] AdjustPhi: 1.332 [ms]
[INFO] ConstrainPressure: 0.002 [ms]
[INFO] MatrixAssemblyPII: 8.369 [ms]
[OGL LOG][Proc: 0]: global_index_init: 0.038 [ms]
[OGL LOG][Proc: 0]p_local_coeffs: call_update: 0 [ms]
[OGL LOG][Proc: 0]p_non_local_coeffs: call_update: 0 [ms]
[OGL LOG][Proc: 0]p: update_local_matrix_data: 5.386 [ms]
[OGL LOG][Proc: 0]p: update_non_local_matrix_data: 0.04 [ms]
[OGL LOG][Proc: 0]p_matrix: call_update: 1.876 [ms]
[OGL LOG][Proc: 0]p_rhs: call_update: 0.503 [ms]
[OGL LOG][Proc: 0]p: init_precond: 0.035 [ms]
[OGL LOG][StoppingCriterion.H:372] Creating stopping criterion with minIter 195 frequency 6
[OGL LOG][Proc: 0]p: generate_solver: 0.002 [ms]
[OGL LOG][Proc: 0]p: solve: 194.562 [ms]
[OGL LOG][Proc: 0]p: copy_x_back: 0.362 [ms]
[OGL LOG][lduLduBase.H:339] 
Statistics:
	Time per iteration: 598 [mu s]
	Time per residual norm calculation: 183.000000 [mu s]
	Time per iteration and DOF: 0.598000 [ns]
	Retrieve results bandwidth 2.762000 [GByte/s]
[OGL LOG][Proc: 0]p: solve_multi_gpu: 197.557 [ms]
nonehipGKOCG:  Solving for p, Initial residual = 0.0751519, Final residual = 8.57305e-05, No Iterations 325
[INFO] SolveP: 204.083 [ms]
time step continuity errors : sum local = 1.24758e-08, global = 3.66239e-21, cumulative = -2.59871e-20
[INFO] ContinuityError: 2.461 [ms]
[INFO] CorrectBoundary: 0.075 [ms]
[INFO] PISOStep: 251.841 [ms]
[INFO] TimeStep: 722.035 [ms]
ExecutionTime = 9.98 s  ClockTime = 10 s

Time = 0.0045

Courant Number mean: 0.0569118 max: 0.470657
[INFO] MatrixAssemblyU: 23.454 [ms]
DILUPBiCGStab:  Solving for Ux, Initial residual = 0.0105282, Final residual = 3.5723e-05, No Iterations 5
DILUPBiCGStab:  Solving for Uy, Initial residual = 0.0226786, Final residual = 5.87546e-05, No Iterations 5
DILUPBiCGStab:  Solving for Uz, Initial residual = 0.0428319, Final residual = 0.000125567, No Iterations 5
[INFO] MomentumPredictor: 175.053 [ms]
[INFO] MatrixAssemblyPI: 25.371 [ms]
[INFO] AdjustPhi: 0.848 [ms]
[INFO] ConstrainPressure: 0.001 [ms]
[INFO] MatrixAssemblyPII: 4.832 [ms]
[OGL LOG][Proc: 0]: global_index_init: 0.011 [ms]
[OGL LOG][Proc: 0]p_local_coeffs: call_update: 0 [ms]
[OGL LOG][Proc: 0]p_non_local_coeffs: call_update: 0 [ms]
[OGL LOG][Proc: 0]p: update_local_matrix_data: 5.09 [ms]
[OGL LOG][Proc: 0]p: update_non_local_matrix_data: 0.1 [ms]
[OGL LOG][Proc: 0]p_matrix: call_update: 3.119 [ms]
[OGL LOG][Proc: 0]p_rhs: call_update: 0.326 [ms]
[OGL LOG][Proc: 0]p: init_precond: 0.04 [ms]
[OGL LOG][StoppingCriterion.H:372] Creating stopping criterion with minIter 195 frequency 6
[OGL LOG][Proc: 0]p: generate_solver: 0.002 [ms]
[OGL LOG][Proc: 0]p: solve: 194.359 [ms]
[OGL LOG][Proc: 0]p: copy_x_back: 0.365 [ms]
[OGL LOG][lduLduBase.H:339] 
Statistics:
	Time per iteration: 598 [mu s]
	Time per residual norm calculation: 178.000000 [mu s]
	Time per iteration and DOF: 0.598000 [ns]
	Retrieve results bandwidth 2.739000 [GByte/s]
[OGL LOG][Proc: 0]p: solve_multi_gpu: 198.44 [ms]
nonehipGKOCG:  Solving for p, Initial residual = 0.0667718, Final residual = 9.95207e-05, No Iterations 325
[INFO] SolveP: 204.78 [ms]
time step continuity errors : sum local = 1.59195e-08, global = 4.21893e-21, cumulative = -2.17682e-20
[INFO] ContinuityError: 3.855 [ms]
[INFO] CorrectBoundary: 0.088 [ms]
[INFO] PISOStep: 254.018 [ms]
[INFO] MatrixAssemblyPI: 24.706 [ms]
[INFO] AdjustPhi: 0.731 [ms]
[INFO] ConstrainPressure: 0.002 [ms]
[INFO] MatrixAssemblyPII: 8.228 [ms]
[OGL LOG][Proc: 0]: global_index_init: 0.026 [ms]
[OGL LOG][Proc: 0]p_local_coeffs: call_update: 0 [ms]
[OGL LOG][Proc: 0]p_non_local_coeffs: call_update: 0 [ms]
[OGL LOG][Proc: 0]p: update_local_matrix_data: 5.293 [ms]
[OGL LOG][Proc: 0]p: update_non_local_matrix_data: 0.047 [ms]
[OGL LOG][Proc: 0]p_matrix: call_update: 2.26 [ms]
[OGL LOG][Proc: 0]p_rhs: call_update: 0.266 [ms]
[OGL LOG][Proc: 0]p: init_precond: 0.036 [ms]
[OGL LOG][StoppingCriterion.H:372] Creating stopping criterion with minIter 195 frequency 6
[OGL LOG][Proc: 0]p: generate_solver: 0.002 [ms]
[OGL LOG][Proc: 0]p: solve: 190.826 [ms]
[OGL LOG][Proc: 0]p: copy_x_back: 0.363 [ms]
[OGL LOG][lduLduBase.H:339] 
Statistics:
	Time per iteration: 598 [mu s]
	Time per residual norm calculation: 175.000000 [mu s]
	Time per iteration and DOF: 0.598000 [ns]
	Retrieve results bandwidth 2.754000 [GByte/s]
[OGL LOG][Proc: 0]p: solve_multi_gpu: 193.968 [ms]
nonehipGKOCG:  Solving for p, Initial residual = 0.0556753, Final residual = 9.64391e-05, No Iterations 319
[INFO] SolveP: 200.36 [ms]
time step continuity errors : sum local = 1.43762e-08, global = -8.56442e-22, cumulative = -2.26246e-20
[INFO] ContinuityError: 3.349 [ms]
[INFO] CorrectBoundary: 0.081 [ms]
[INFO] PISOStep: 247.913 [ms]
[INFO] TimeStep: 703.548 [ms]
ExecutionTime = 10.67 s  ClockTime = 11 s

Time = 0.005

Courant Number mean: 0.0592067 max: 0.472052
[INFO] MatrixAssemblyU: 23.915 [ms]
DILUPBiCGStab:  Solving for Ux, Initial residual = 0.00921074, Final residual = 3.00596e-05, No Iterations 5
DILUPBiCGStab:  Solving for Uy, Initial residual = 0.019747, Final residual = 4.40646e-05, No Iterations 5
DILUPBiCGStab:  Solving for Uz, Initial residual = 0.038067, Final residual = 0.000101734, No Iterations 5
[INFO] MomentumPredictor: 180.348 [ms]
[INFO] MatrixAssemblyPI: 23.333 [ms]
[INFO] AdjustPhi: 3.419 [ms]
[INFO] ConstrainPressure: 0.002 [ms]
[INFO] MatrixAssemblyPII: 7.631 [ms]
[OGL LOG][Proc: 0]: global_index_init: 0.005 [ms]
[OGL LOG][Proc: 0]p_local_coeffs: call_update: 0 [ms]
[OGL LOG][Proc: 0]p_non_local_coeffs: call_update: 0 [ms]
[OGL LOG][Proc: 0]p: update_local_matrix_data: 4.579 [ms]
[OGL LOG][Proc: 0]p: update_non_local_matrix_data: 0.119 [ms]
[OGL LOG][Proc: 0]p_matrix: call_update: 2.395 [ms]
[OGL LOG][Proc: 0]p_rhs: call_update: 1.404 [ms]
[OGL LOG][Proc: 0]p: init_precond: 0.032 [ms]
[OGL LOG][StoppingCriterion.H:372] Creating stopping criterion with minIter 191 frequency 6
[OGL LOG][Proc: 0]p: generate_solver: 0.001 [ms]
[OGL LOG][Proc: 0]p: solve: 220.206 [ms]
[OGL LOG][Proc: 0]p: copy_x_back: 0.363 [ms]
[OGL LOG][lduLduBase.H:339] 
Statistics:
	Time per iteration: 677 [mu s]
	Time per residual norm calculation: 189.000000 [mu s]
	Time per iteration and DOF: 0.677000 [ns]
	Retrieve results bandwidth 2.754000 [GByte/s]
[OGL LOG][Proc: 0]p: solve_multi_gpu: 224.629 [ms]
nonehipGKOCG:  Solving for p, Initial residual = 0.0446556, Final residual = 8.84497e-05, No Iterations 325
[INFO] SolveP: 230.809 [ms]
time step continuity errors : sum local = 1.32166e-08, global = 2.38352e-21, cumulative = -2.02411e-20
[INFO] ContinuityError: 4.068 [ms]
[INFO] CorrectBoundary: 0.636 [ms]
[INFO] PISOStep: 281.633 [ms]
[INFO] MatrixAssemblyPI: 23.986 [ms]
[INFO] AdjustPhi: 1.657 [ms]
[INFO] ConstrainPressure: 0.001 [ms]
[INFO] MatrixAssemblyPII: 8.328 [ms]
[OGL LOG][Proc: 0]: global_index_init: 0.156 [ms]
[OGL LOG][Proc: 0]p_local_coeffs: call_update: 0 [ms]
[OGL LOG][Proc: 0]p_non_local_coeffs: call_update: 0 [ms]
[OGL LOG][Proc: 0]p: update_local_matrix_data: 5.203 [ms]
[OGL LOG][Proc: 0]p: update_non_local_matrix_data: 0.046 [ms]
[OGL LOG][Proc: 0]p_matrix: call_update: 4.671 [ms]
[OGL LOG][Proc: 0]p_rhs: call_update: 0.211 [ms]
[OGL LOG][Proc: 0]p: init_precond: 0.031 [ms]
[OGL LOG][StoppingCriterion.H:372] Creating stopping criterion with minIter 195 frequency 6
[OGL LOG][Proc: 0]p: generate_solver: 0.002 [ms]
[OGL LOG][Proc: 0]p: solve: 195.491 [ms]
[OGL LOG][Proc: 0]p: copy_x_back: 0.374 [ms]
[OGL LOG][lduLduBase.H:339] 
Statistics:
	Time per iteration: 612 [mu s]
	Time per residual norm calculation: 171.000000 [mu s]
	Time per iteration and DOF: 0.612000 [ns]
	Retrieve results bandwidth 2.673000 [GByte/s]
[OGL LOG][Proc: 0]p: solve_multi_gpu: 200.98 [ms]
nonehipGKOCG:  Solving for p, Initial residual = 0.0376825, Final residual = 9.23855e-05, No Iterations 319
[INFO] SolveP: 207.483 [ms]
time step continuity errors : sum local = 1.3153e-08, global = 8.66596e-21, cumulative = -1.15751e-20
[INFO] ContinuityError: 4.382 [ms]
[INFO] CorrectBoundary: 0.661 [ms]
[INFO] PISOStep: 256.601 [ms]
[INFO] TimeStep: 746.368 [ms]
ExecutionTime = 11.4 s  ClockTime = 12 s

Time = 0.0055

Courant Number mean: 0.0612662 max: 0.473198
[INFO] MatrixAssemblyU: 23.259 [ms]
DILUPBiCGStab:  Solving for Ux, Initial residual = 0.00814023, Final residual = 2.51941e-05, No Iterations 5
DILUPBiCGStab:  Solving for Uy, Initial residual = 0.0174511, Final residual = 3.94713e-05, No Iterations 5
DILUPBiCGStab:  Solving for Uz, Initial residual = 0.0342815, Final residual = 8.60903e-05, No Iterations 5
[INFO] MomentumPredictor: 180.928 [ms]
[INFO] MatrixAssemblyPI: 25.852 [ms]
[INFO] AdjustPhi: 0.771 [ms]
[INFO] ConstrainPressure: 0.001 [ms]
[INFO] MatrixAssemblyPII: 7.805 [ms]
[OGL LOG][Proc: 0]: global_index_init: 0.071 [ms]
[OGL LOG][Proc: 0]p_local_coeffs: call_update: 0 [ms]
[OGL LOG][Proc: 0]p_non_local_coeffs: call_update: 0 [ms]
[OGL LOG][Proc: 0]p: update_local_matrix_data: 5.362 [ms]
[OGL LOG][Proc: 0]p: update_non_local_matrix_data: 0.064 [ms]
[OGL LOG][Proc: 0]p_matrix: call_update: 3.346 [ms]
[OGL LOG][Proc: 0]p_rhs: call_update: 0.241 [ms]
[OGL LOG][Proc: 0]p: init_precond: 0.027 [ms]
[OGL LOG][StoppingCriterion.H:372] Creating stopping criterion with minIter 191 frequency 6
[OGL LOG][Proc: 0]p: generate_solver: 0.003 [ms]
[OGL LOG][Proc: 0]p: solve: 416.43 [ms]
[OGL LOG][Proc: 0]p: copy_x_back: 0.515 [ms]
[OGL LOG][lduLduBase.H:339] 
Statistics:
	Time per iteration: 597 [mu s]
	Time per residual norm calculation: 183.000000 [mu s]
	Time per iteration and DOF: 0.597000 [ns]
	Retrieve results bandwidth 1.941000 [GByte/s]
[OGL LOG][Proc: 0]p: solve_multi_gpu: 420.735 [ms]
nonehipGKOCG:  Solving for p, Initial residual = 0.0350183, Final residual = 7.65857e-05, No Iterations 697
[INFO] SolveP: 427.309 [ms]
time step continuity errors : sum local = 1.07792e-08, global = 2.65876e-21, cumulative = -8.91636e-21
[INFO] ContinuityError: 3.459 [ms]
[INFO] CorrectBoundary: 1.07 [ms]
[INFO] PISOStep: 478.295 [ms]
[INFO] MatrixAssemblyPI: 22.793 [ms]
[INFO] AdjustPhi: 3.548 [ms]
[INFO] ConstrainPressure: 0.002 [ms]
[INFO] MatrixAssemblyPII: 8.29 [ms]
[OGL LOG][Proc: 0]: global_index_init: 0.091 [ms]
[OGL LOG][Proc: 0]p_local_coeffs: call_update: 0 [ms]
[OGL LOG][Proc: 0]p_non_local_coeffs: call_update: 0 [ms]
[OGL LOG][Proc: 0]p: update_local_matrix_data: 5.176 [ms]
[OGL LOG][Proc: 0]p: update_non_local_matrix_data: 0.079 [ms]
[OGL LOG][Proc: 0]p_matrix: call_update: 1.88 [ms]
[OGL LOG][Proc: 0]p_rhs: call_update: 0.667 [ms]
[OGL LOG][Proc: 0]p: init_precond: 0.032 [ms]
[OGL LOG][StoppingCriterion.H:372] Creating stopping criterion with minIter 418 frequency 9
[OGL LOG][Proc: 0]p: generate_solver: 0.002 [ms]
[OGL LOG][Proc: 0]p: solve: 409.781 [ms]
[OGL LOG][Proc: 0]p: copy_x_back: 0.404 [ms]
[OGL LOG][lduLduBase.H:339] 
Statistics:
	Time per iteration: 590 [mu s]
	Time per residual norm calculation: 182.000000 [mu s]
	Time per iteration and DOF: 0.590000 [ns]
	Retrieve results bandwidth 2.475000 [GByte/s]
[OGL LOG][Proc: 0]p: solve_multi_gpu: 412.987 [ms]
nonehipGKOCG:  Solving for p, Initial residual = 0.0297418, Final residual = 8.02898e-05, No Iterations 694
[INFO] SolveP: 419.265 [ms]
time step continuity errors : sum local = 1.13049e-08, global = 1.14067e-20, cumulative = 2.49037e-21
[INFO] ContinuityError: 3.473 [ms]
[INFO] CorrectBoundary: 0.103 [ms]
[INFO] PISOStep: 468.729 [ms]
[INFO] TimeStep: 1154.74 [ms]
ExecutionTime = 12.53 s  ClockTime = 13 s

Time = 0.006

Courant Number mean: 0.0631376 max: 0.474175
[INFO] MatrixAssemblyU: 23.55 [ms]
DILUPBiCGStab:  Solving for Ux, Initial residual = 0.00728647, Final residual = 2.2074e-05, No Iterations 5
DILUPBiCGStab:  Solving for Uy, Initial residual = 0.0155757, Final residual = 3.38479e-05, No Iterations 5
DILUPBiCGStab:  Solving for Uz, Initial residual = 0.0305078, Final residual = 6.94723e-05, No Iterations 5
[INFO] MomentumPredictor: 175.6 [ms]
[INFO] MatrixAssemblyPI: 24.604 [ms]
[INFO] AdjustPhi: 2.144 [ms]
[INFO] ConstrainPressure: 0.001 [ms]
[INFO] MatrixAssemblyPII: 8.37 [ms]
[OGL LOG][Proc: 0]: global_index_init: 0.019 [ms]
[OGL LOG][Proc: 0]p_local_coeffs: call_update: 0 [ms]
[OGL LOG][Proc: 0]p_non_local_coeffs: call_update: 0 [ms]
[OGL LOG][Proc: 0]p: update_local_matrix_data: 5.168 [ms]
[OGL LOG][Proc: 0]p: update_non_local_matrix_data: 0.086 [ms]
[OGL LOG][Proc: 0]p_matrix: call_update: 2.844 [ms]
[OGL LOG][Proc: 0]p_rhs: call_update: 0.462 [ms]
[OGL LOG][Proc: 0]p: init_precond: 0.032 [ms]
[OGL LOG][StoppingCriterion.H:372] Creating stopping criterion with minIter 416 frequency 9
[OGL LOG][Proc: 0]p: generate_solver: 0.002 [ms]
[OGL LOG][Proc: 0]p: solve: 246.405 [ms]
[OGL LOG][Proc: 0]p: copy_x_back: 0.374 [ms]
[OGL LOG][lduLduBase.H:339] 
Statistics:
	Time per iteration: 581 [mu s]
	Time per residual norm calculation: 195.000000 [mu s]
	Time per iteration and DOF: 0.581000 [ns]
	Retrieve results bandwidth 2.673000 [GByte/s]
[OGL LOG][Proc: 0]p: solve_multi_gpu: 250.383 [ms]
nonehipGKOCG:  Solving for p, Initial residual = 0.0249352, Final residual = 1.2028e-05, No Iterations 424
[INFO] SolveP: 256.687 [ms]
time step continuity errors : sum local = 1.79738e-09, global = -4.30369e-21, cumulative = -1.81332e-21
[INFO] ContinuityError: 3.928 [ms]
[INFO] CorrectBoundary: 0.284 [ms]
[INFO] PISOStep: 307.412 [ms]
[INFO] MatrixAssemblyPI: 23.482 [ms]
[INFO] AdjustPhi: 1.908 [ms]
[INFO] ConstrainPressure: 0.002 [ms]
[INFO] MatrixAssemblyPII: 8.319 [ms]
[OGL LOG][Proc: 0]: global_index_init: 0.021 [ms]
[OGL LOG][Proc: 0]p_local_coeffs: call_update: 0 [ms]
[OGL LOG][Proc: 0]p_non_local_coeffs: call_update: 0 [ms]
[OGL LOG][Proc: 0]p: update_local_matrix_data: 5.174 [ms]
[OGL LOG][Proc: 0]p: update_non_local_matrix_data: 0.063 [ms]
[OGL LOG][Proc: 0]p_matrix: call_update: 2.523 [ms]
[OGL LOG][Proc: 0]p_rhs: call_update: 0.182 [ms]
[OGL LOG][Proc: 0]p: init_precond: 0.033 [ms]
[OGL LOG][StoppingCriterion.H:372] Creating stopping criterion with minIter 254 frequency 9
[OGL LOG][Proc: 0]p: generate_solver: 0.002 [ms]
[OGL LOG][Proc: 0]p: solve: 187.046 [ms]
[OGL LOG][Proc: 0]p: copy_x_back: 0.359 [ms]
[OGL LOG][lduLduBase.H:339] 
Statistics:
	Time per iteration: 591 [mu s]
	Time per residual norm calculation: 179.000000 [mu s]
	Time per iteration and DOF: 0.591000 [ns]
	Retrieve results bandwidth 2.785000 [GByte/s]
[OGL LOG][Proc: 0]p: solve_multi_gpu: 190.394 [ms]
nonehipGKOCG:  Solving for p, Initial residual = 0.0217521, Final residual = 7.29831e-05, No Iterations 316
[INFO] SolveP: 196.738 [ms]
time step continuity errors : sum local = 1.03225e-08, global = -9.29363e-22, cumulative = -2.74269e-21
[INFO] ContinuityError: 2.166 [ms]
[INFO] CorrectBoundary: 0.291 [ms]
[INFO] PISOStep: 244.732 [ms]
[INFO] TimeStep: 754.583 [ms]
ExecutionTime = 13.27 s  ClockTime = 14 s

Time = 0.0065

Courant Number mean: 0.0648411 max: 0.475011
[INFO] MatrixAssemblyU: 23.035 [ms]
DILUPBiCGStab:  Solving for Ux, Initial residual = 0.00655656, Final residual = 1.91758e-05, No Iterations 5
DILUPBiCGStab:  Solving for Uy, Initial residual = 0.0140535, Final residual = 3.04756e-05, No Iterations 5
DILUPBiCGStab:  Solving for Uz, Initial residual = 0.0276597, Final residual = 6.07571e-05, No Iterations 5
[INFO] MomentumPredictor: 175.594 [ms]
[INFO] MatrixAssemblyPI: 25.569 [ms]
[INFO] AdjustPhi: 0.992 [ms]
[INFO] ConstrainPressure: 0.001 [ms]
[INFO] MatrixAssemblyPII: 8.197 [ms]
[OGL LOG][Proc: 0]: global_index_init: 0.026 [ms]
[OGL LOG][Proc: 0]p_local_coeffs: call_update: 0 [ms]
[OGL LOG][Proc: 0]p_non_local_coeffs: call_update: 0 [ms]
[OGL LOG][Proc: 0]p: update_local_matrix_data: 5.251 [ms]
[OGL LOG][Proc: 0]p: update_non_local_matrix_data: 0.065 [ms]
[OGL LOG][Proc: 0]p_matrix: call_update: 3.072 [ms]
[OGL LOG][Proc: 0]p_rhs: call_update: 0.423 [ms]
[OGL LOG][Proc: 0]p: init_precond: 0.031 [ms]
[OGL LOG][StoppingCriterion.H:372] Creating stopping criterion with minIter 189 frequency 6
[OGL LOG][Proc: 0]p: generate_solver: 0.002 [ms]
[OGL LOG][Proc: 0]p: solve: 183.941 [ms]
[OGL LOG][Proc: 0]p: copy_x_back: 0.383 [ms]
[OGL LOG][lduLduBase.H:339] 
Statistics:
	Time per iteration: 599 [mu s]
	Time per residual norm calculation: 178.000000 [mu s]
	Time per iteration and DOF: 0.599000 [ns]
	Retrieve results bandwidth 2.610000 [GByte/s]
[OGL LOG][Proc: 0]p: solve_multi_gpu: 188.102 [ms]
nonehipGKOCG:  Solving for p, Initial residual = 0.0204782, Final residual = 9.8543e-05, No Iterations 307
[INFO] SolveP: 194.462 [ms]
time step continuity errors : sum local = 1.45139e-08, global = -6.39349e-21, cumulative = -9.13617e-21
[INFO] ContinuityError: 2.604 [ms]
[INFO] CorrectBoundary: 0.46 [ms]
[INFO] PISOStep: 247.761 [ms]
[INFO] MatrixAssemblyPI: 22.976 [ms]
[INFO] AdjustPhi: 2.752 [ms]
[INFO] ConstrainPressure: 0.002 [ms]
[INFO] MatrixAssemblyPII: 7.673 [ms]
[OGL LOG][Proc: 0]: global_index_init: 0.005 [ms]
[OGL LOG][Proc: 0]p_local_coeffs: call_update: 0 [ms]
[OGL LOG][Proc: 0]p_non_local_coeffs: call_update: 0 [ms]
[OGL LOG][Proc: 0]p: update_local_matrix_data: 4.462 [ms]
[OGL LOG][Proc: 0]p: update_non_local_matrix_data: 0.105 [ms]
[OGL LOG][Proc: 0]p_matrix: call_update: 2.419 [ms]
[OGL LOG][Proc: 0]p_rhs: call_update: 0.813 [ms]
[OGL LOG][Proc: 0]p: init_precond: 0.034 [ms]
[OGL LOG][StoppingCriterion.H:372] Creating stopping criterion with minIter 184 frequency 6
[OGL LOG][Proc: 0]p: generate_solver: 0.002 [ms]
[OGL LOG][Proc: 0]p: solve: 190.538 [ms]
[OGL LOG][Proc: 0]p: copy_x_back: 0.363 [ms]
[OGL LOG][lduLduBase.H:339] 
Statistics:
	Time per iteration: 620 [mu s]
	Time per residual norm calculation: 182.000000 [mu s]
	Time per iteration and DOF: 0.620000 [ns]
	Retrieve results bandwidth 2.754000 [GByte/s]
[OGL LOG][Proc: 0]p: solve_multi_gpu: 194.455 [ms]
nonehipGKOCG:  Solving for p, Initial residual = 0.018022, Final residual = 8.76132e-05, No Iterations 307
[INFO] SolveP: 200.102 [ms]
time step continuity errors : sum local = 1.24468e-08, global = -5.70858e-22, cumulative = -9.70703e-21
[INFO] ContinuityError: 6.863 [ms]
[INFO] CorrectBoundary: 1.946 [ms]
[INFO] PISOStep: 253.087 [ms]
[INFO] TimeStep: 702.512 [ms]
ExecutionTime = 13.96 s  ClockTime = 14 s

Time = 0.007

Courant Number mean: 0.0664084 max: 0.47574
[INFO] MatrixAssemblyU: 22.258 [ms]
DILUPBiCGStab:  Solving for Ux, Initial residual = 0.0059561, Final residual = 1.71545e-05, No Iterations 5
DILUPBiCGStab:  Solving for Uy, Initial residual = 0.0127638, Final residual = 2.74361e-05, No Iterations 5
DILUPBiCGStab:  Solving for Uz, Initial residual = 0.0252377, Final residual = 5.55988e-05, No Iterations 5
[INFO] MomentumPredictor: 179.234 [ms]
[INFO] MatrixAssemblyPI: 25.253 [ms]
[INFO] AdjustPhi: 1.515 [ms]
[INFO] ConstrainPressure: 0.002 [ms]
[INFO] MatrixAssemblyPII: 8.349 [ms]
[OGL LOG][Proc: 0]: global_index_init: 0.046 [ms]
[OGL LOG][Proc: 0]p_local_coeffs: call_update: 0 [ms]
[OGL LOG][Proc: 0]p_non_local_coeffs: call_update: 0 [ms]
[OGL LOG][Proc: 0]p: update_local_matrix_data: 5.264 [ms]
[OGL LOG][Proc: 0]p: update_non_local_matrix_data: 0.041 [ms]
[OGL LOG][Proc: 0]p_matrix: call_update: 2.196 [ms]
[OGL LOG][Proc: 0]p_rhs: call_update: 1.164 [ms]
[OGL LOG][Proc: 0]p: init_precond: 0.024 [ms]
[OGL LOG][StoppingCriterion.H:372] Creating stopping criterion with minIter 184 frequency 6
[OGL LOG][Proc: 0]p: generate_solver: 0.002 [ms]
[OGL LOG][Proc: 0]p: solve: 184.368 [ms]
[OGL LOG][Proc: 0]p: copy_x_back: 0.377 [ms]
[OGL LOG][lduLduBase.H:339] 
Statistics:
	Time per iteration: 600 [mu s]
	Time per residual norm calculation: 179.000000 [mu s]
	Time per iteration and DOF: 0.600000 [ns]
	Retrieve results bandwidth 2.652000 [GByte/s]
[OGL LOG][Proc: 0]p: solve_multi_gpu: 188.342 [ms]
nonehipGKOCG:  Solving for p, Initial residual = 0.0160974, Final residual = 8.42328e-05, No Iterations 307
[INFO] SolveP: 194.937 [ms]
time step continuity errors : sum local = 1.21829e-08, global = -5.30357e-21, cumulative = -1.50106e-20
[INFO] ContinuityError: 2.492 [ms]
[INFO] CorrectBoundary: 0.101 [ms]
[INFO] PISOStep: 242.936 [ms]
[INFO] MatrixAssemblyPI: 21.243 [ms]
[INFO] AdjustPhi: 6.689 [ms]
[INFO] ConstrainPressure: 0.002 [ms]
[INFO] MatrixAssemblyPII: 7.302 [ms]
[OGL LOG][Proc: 0]: global_index_init: 0.019 [ms]
[OGL LOG][Proc: 0]p_local_coeffs: call_update: 0 [ms]
[OGL LOG][Proc: 0]p_non_local_coeffs: call_update: 0 [ms]
[OGL LOG][Proc: 0]p: update_local_matrix_data: 5.011 [ms]
[OGL LOG][Proc: 0]p: update_non_local_matrix_data: 0.05 [ms]
[OGL LOG][Proc: 0]p_matrix: call_update: 1.943 [ms]
[OGL LOG][Proc: 0]p_rhs: call_update: 1.145 [ms]
[OGL LOG][Proc: 0]p: init_precond: 0.032 [ms]
[OGL LOG][StoppingCriterion.H:372] Creating stopping criterion with minIter 184 frequency 6
[OGL LOG][Proc: 0]p: generate_solver: 0.002 [ms]
[OGL LOG][Proc: 0]p: solve: 181.359 [ms]
[OGL LOG][Proc: 0]p: copy_x_back: 0.356 [ms]
[OGL LOG][lduLduBase.H:339] 
Statistics:
	Time per iteration: 602 [mu s]
	Time per residual norm calculation: 182.000000 [mu s]
	Time per iteration and DOF: 0.602000 [ns]
	Retrieve results bandwidth 2.808000 [GByte/s]
[OGL LOG][Proc: 0]p: solve_multi_gpu: 185.078 [ms]
nonehipGKOCG:  Solving for p, Initial residual = 0.0145644, Final residual = 9.03949e-05, No Iterations 301
[INFO] SolveP: 191.254 [ms]
time step continuity errors : sum local = 1.27805e-08, global = -6.3504e-21, cumulative = -2.1361e-20
[INFO] ContinuityError: 2.586 [ms]
[INFO] CorrectBoundary: 0.385 [ms]
[INFO] PISOStep: 241.351 [ms]
[INFO] TimeStep: 689.425 [ms]
ExecutionTime = 14.64 s  ClockTime = 15 s

Time = 0.0075

Courant Number mean: 0.0678549 max: 0.476379
[INFO] MatrixAssemblyU: 23.305 [ms]
DILUPBiCGStab:  Solving for Ux, Initial residual = 0.00543619, Final residual = 1.52687e-05, No Iterations 5
DILUPBiCGStab:  Solving for Uy, Initial residual = 0.0116639, Final residual = 2.49672e-05, No Iterations 5
DILUPBiCGStab:  Solving for Uz, Initial residual = 0.0233891, Final residual = 5.08441e-05, No Iterations 5
[INFO] MomentumPredictor: 174.435 [ms]
[INFO] MatrixAssemblyPI: 25.573 [ms]
[INFO] AdjustPhi: 0.846 [ms]
[INFO] ConstrainPressure: 0.001 [ms]
[INFO] MatrixAssemblyPII: 8.628 [ms]
[OGL LOG][Proc: 0]: global_index_init: 0.137 [ms]
[OGL LOG][Proc: 0]p_local_coeffs: call_update: 0 [ms]
[OGL LOG][Proc: 0]p_non_local_coeffs: call_update: 0 [ms]
[OGL LOG][Proc: 0]p: update_local_matrix_data: 5.162 [ms]
[OGL LOG][Proc: 0]p: update_non_local_matrix_data: 0.072 [ms]
[OGL LOG][Proc: 0]p_matrix: call_update: 2.782 [ms]
[OGL LOG][Proc: 0]p_rhs: call_update: 3.745 [ms]
[OGL LOG][Proc: 0]p: init_precond: 0.031 [ms]
[OGL LOG][StoppingCriterion.H:372] Creating stopping criterion with minIter 180 frequency 6
[OGL LOG][Proc: 0]p: generate_solver: 0.001 [ms]
[OGL LOG][Proc: 0]p: solve: 201.067 [ms]
[OGL LOG][Proc: 0]p: copy_x_back: 0.571 [ms]
[OGL LOG][lduLduBase.H:339] 
Statistics:
	Time per iteration: 654 [mu s]
	Time per residual norm calculation: 186.000000 [mu s]
	Time per iteration and DOF: 0.654000 [ns]
	Retrieve results bandwidth 1.751000 [GByte/s]
[OGL LOG][Proc: 0]p: solve_multi_gpu: 208.428 [ms]
nonehipGKOCG:  Solving for p, Initial residual = 0.0139529, Final residual = 9.52263e-05, No Iterations 307
[INFO] SolveP: 214.87 [ms]
time step continuity errors : sum local = 1.44096e-08, global = 4.72289e-21, cumulative = -1.66381e-20
[INFO] ContinuityError: 2.164 [ms]
[INFO] CorrectBoundary: 0.204 [ms]
[INFO] PISOStep: 265.192 [ms]
[INFO] MatrixAssemblyPI: 24.272 [ms]
[INFO] AdjustPhi: 1.608 [ms]
[INFO] ConstrainPressure: 0.002 [ms]
[INFO] MatrixAssemblyPII: 8.29 [ms]
[OGL LOG][Proc: 0]: global_index_init: 0.091 [ms]
[OGL LOG][Proc: 0]p_local_coeffs: call_update: 0 [ms]
[OGL LOG][Proc: 0]p_non_local_coeffs: call_update: 0 [ms]
[OGL LOG][Proc: 0]p: update_local_matrix_data: 5.384 [ms]
[OGL LOG][Proc: 0]p: update_non_local_matrix_data: 0.055 [ms]
[OGL LOG][Proc: 0]p_matrix: call_update: 2.196 [ms]
[OGL LOG][Proc: 0]p_rhs: call_update: 0.145 [ms]
[OGL LOG][Proc: 0]p: init_precond: 0.038 [ms]
[OGL LOG][StoppingCriterion.H:372] Creating stopping criterion with minIter 184 frequency 6
[OGL LOG][Proc: 0]p: generate_solver: 0.002 [ms]
[OGL LOG][Proc: 0]p: solve: 180.683 [ms]
[OGL LOG][Proc: 0]p: copy_x_back: 0.355 [ms]
[OGL LOG][lduLduBase.H:339] 
Statistics:
	Time per iteration: 600 [mu s]
	Time per residual norm calculation: 185.000000 [mu s]
	Time per iteration and DOF: 0.600000 [ns]
	Retrieve results bandwidth 2.816000 [GByte/s]
[OGL LOG][Proc: 0]p: solve_multi_gpu: 183.633 [ms]
nonehipGKOCG:  Solving for p, Initial residual = 0.0127275, Final residual = 9.17205e-05, No Iterations 301
[INFO] SolveP: 190.197 [ms]
time step continuity errors : sum local = 1.31522e-08, global = 4.55994e-21, cumulative = -1.20782e-20
[INFO] ContinuityError: 2.352 [ms]
[INFO] CorrectBoundary: 0.095 [ms]
[INFO] PISOStep: 239.202 [ms]
[INFO] TimeStep: 705.406 [ms]
ExecutionTime = 15.33 s  ClockTime = 16 s

Time = 0.008

Courant Number mean: 0.0691917 max: 0.476948
[INFO] MatrixAssemblyU: 24.134 [ms]
DILUPBiCGStab:  Solving for Ux, Initial residual = 0.00498886, Final residual = 1.38332e-05, No Iterations 5
DILUPBiCGStab:  Solving for Uy, Initial residual = 0.0107235, Final residual = 2.28839e-05, No Iterations 5
DILUPBiCGStab:  Solving for Uz, Initial residual = 0.0215849, Final residual = 4.9445e-05, No Iterations 5
[INFO] MomentumPredictor: 175.115 [ms]
[INFO] MatrixAssemblyPI: 25.501 [ms]
[INFO] AdjustPhi: 0.72 [ms]
[INFO] ConstrainPressure: 0.001 [ms]
[INFO] MatrixAssemblyPII: 8.515 [ms]
[OGL LOG][Proc: 0]: global_index_init: 0.006 [ms]
[OGL LOG][Proc: 0]p_local_coeffs: call_update: 0 [ms]
[OGL LOG][Proc: 0]p_non_local_coeffs: call_update: 0 [ms]
[OGL LOG][Proc: 0]p: update_local_matrix_data: 5.348 [ms]
[OGL LOG][Proc: 0]p: update_non_local_matrix_data: 0.041 [ms]
[OGL LOG][Proc: 0]p_matrix: call_update: 3.054 [ms]
[OGL LOG][Proc: 0]p_rhs: call_update: 0.343 [ms]
[OGL LOG][Proc: 0]p: init_precond: 0.033 [ms]
[OGL LOG][StoppingCriterion.H:372] Creating stopping criterion with minIter 180 frequency 6
[OGL LOG][Proc: 0]p: generate_solver: 0.002 [ms]
[OGL LOG][Proc: 0]p: solve: 184.029 [ms]
[OGL LOG][Proc: 0]p: copy_x_back: 0.357 [ms]
[OGL LOG][lduLduBase.H:339] 
Statistics:
	Time per iteration: 599 [mu s]
	Time per residual norm calculation: 182.000000 [mu s]
	Time per iteration and DOF: 0.599000 [ns]
	Retrieve results bandwidth 2.801000 [GByte/s]
[OGL LOG][Proc: 0]p: solve_multi_gpu: 188.072 [ms]
nonehipGKOCG:  Solving for p, Initial residual = 0.0119255, Final residual = 9.79849e-05, No Iterations 307
[INFO] SolveP: 194.484 [ms]
time step continuity errors : sum local = 1.46227e-08, global = -6.42347e-21, cumulative = -1.85016e-20
[INFO] ContinuityError: 2.408 [ms]
[INFO] CorrectBoundary: 0.225 [ms]
[INFO] PISOStep: 242.268 [ms]
[INFO] MatrixAssemblyPI: 24.681 [ms]
[INFO] AdjustPhi: 1.393 [ms]
[INFO] ConstrainPressure: 0.001 [ms]
[INFO] MatrixAssemblyPII: 8.258 [ms]
[OGL LOG][Proc: 0]: global_index_init: 0.017 [ms]
[OGL LOG][Proc: 0]p_local_coeffs: call_update: 0 [ms]
[OGL LOG][Proc: 0]p_non_local_coeffs: call_update: 0 [ms]
[OGL LOG][Proc: 0]p: update_local_matrix_data: 5.117 [ms]
[OGL LOG][Proc: 0]p: update_non_local_matrix_data: 0.111 [ms]
[OGL LOG][Proc: 0]p_matrix: call_update: 2.211 [ms]
[OGL LOG][Proc: 0]p_rhs: call_update: 4.438 [ms]
[OGL LOG][Proc: 0]p: init_precond: 0.036 [ms]
[OGL LOG][StoppingCriterion.H:372] Creating stopping criterion with minIter 184 frequency 6
[OGL LOG][Proc: 0]p: generate_solver: 0.002 [ms]
[OGL LOG][Proc: 0]p: solve: 181.308 [ms]
[OGL LOG][Proc: 0]p: copy_x_back: 0.365 [ms]
[OGL LOG][lduLduBase.H:339] 
Statistics:
	Time per iteration: 602 [mu s]
	Time per residual norm calculation: 180.000000 [mu s]
	Time per iteration and DOF: 0.602000 [ns]
	Retrieve results bandwidth 2.739000 [GByte/s]
[OGL LOG][Proc: 0]p: solve_multi_gpu: 188.589 [ms]
nonehipGKOCG:  Solving for p, Initial residual = 0.0110825, Final residual = 9.66624e-05, No Iterations 301
[INFO] SolveP: 194.87 [ms]
time step continuity errors : sum local = 1.377e-08, global = -8.48207e-21, cumulative = -2.69837e-20
[INFO] ContinuityError: 3.668 [ms]
[INFO] CorrectBoundary: 0.088 [ms]
[INFO] PISOStep: 243.445 [ms]
[INFO] TimeStep: 688.04 [ms]
ExecutionTime = 16.01 s  ClockTime = 17 s

Time = 0.0085

Courant Number mean: 0.0704368 max: 0.477455
[INFO] MatrixAssemblyU: 23.681 [ms]
DILUPBiCGStab:  Solving for Ux, Initial residual = 0.00460117, Final residual = 1.25079e-05, No Iterations 5
DILUPBiCGStab:  Solving for Uy, Initial residual = 0.00989111, Final residual = 2.1099e-05, No Iterations 5
DILUPBiCGStab:  Solving for Uz, Initial residual = 0.0202816, Final residual = 4.73932e-05, No Iterations 5
[INFO] MomentumPredictor: 174.233 [ms]
[INFO] MatrixAssemblyPI: 24.729 [ms]
[INFO] AdjustPhi: 1.491 [ms]
[INFO] ConstrainPressure: 0.002 [ms]
[INFO] MatrixAssemblyPII: 8.24 [ms]
[OGL LOG][Proc: 0]: global_index_init: 0.045 [ms]
[OGL LOG][Proc: 0]p_local_coeffs: call_update: 0 [ms]
[OGL LOG][Proc: 0]p_non_local_coeffs: call_update: 0 [ms]
[OGL LOG][Proc: 0]p: update_local_matrix_data: 5.176 [ms]
[OGL LOG][Proc: 0]p: update_non_local_matrix_data: 0.083 [ms]
[OGL LOG][Proc: 0]p_matrix: call_update: 2.448 [ms]
[OGL LOG][Proc: 0]p_rhs: call_update: 0.856 [ms]
[OGL LOG][Proc: 0]p: init_precond: 0.026 [ms]
[OGL LOG][StoppingCriterion.H:372] Creating stopping criterion with minIter 180 frequency 6
[OGL LOG][Proc: 0]p: generate_solver: 0.002 [ms]
[OGL LOG][Proc: 0]p: solve: 187.519 [ms]
[OGL LOG][Proc: 0]p: copy_x_back: 0.377 [ms]
[OGL LOG][lduLduBase.H:339] 
Statistics:
	Time per iteration: 599 [mu s]
	Time per residual norm calculation: 180.000000 [mu s]
	Time per iteration and DOF: 0.599000 [ns]
	Retrieve results bandwidth 2.652000 [GByte/s]
[OGL LOG][Proc: 0]p: solve_multi_gpu: 191.492 [ms]
nonehipGKOCG:  Solving for p, Initial residual = 0.0107923, Final residual = 9.82235e-05, No Iterations 313
[INFO] SolveP: 197.835 [ms]
time step continuity errors : sum local = 1.55302e-08, global = 8.10203e-21, cumulative = -1.88817e-20
[INFO] ContinuityError: 4.434 [ms]
[INFO] CorrectBoundary: 2.75 [ms]
[INFO] PISOStep: 250.155 [ms]
[INFO] MatrixAssemblyPI: 23.801 [ms]
[INFO] AdjustPhi: 2.111 [ms]
[INFO] ConstrainPressure: 0.002 [ms]
[INFO] MatrixAssemblyPII: 8.217 [ms]
[OGL LOG][Proc: 0]: global_index_init: 0.031 [ms]
[OGL LOG][Proc: 0]p_local_coeffs: call_update: 0 [ms]
[OGL LOG][Proc: 0]p_non_local_coeffs: call_update: 0 [ms]
[OGL LOG][Proc: 0]p: update_local_matrix_data: 5.257 [ms]
[OGL LOG][Proc: 0]p: update_non_local_matrix_data: 0.054 [ms]
[OGL LOG][Proc: 0]p_matrix: call_update: 2.485 [ms]
[OGL LOG][Proc: 0]p_rhs: call_update: 0.206 [ms]
[OGL LOG][Proc: 0]p: init_precond: 0.034 [ms]
[OGL LOG][StoppingCriterion.H:372] Creating stopping criterion with minIter 187 frequency 6
[OGL LOG][Proc: 0]p: generate_solver: 0.002 [ms]
[OGL LOG][Proc: 0]p: solve: 181.749 [ms]
[OGL LOG][Proc: 0]p: copy_x_back: 0.367 [ms]
[OGL LOG][lduLduBase.H:339] 
Statistics:
	Time per iteration: 603 [mu s]
	Time per residual norm calculation: 186.000000 [mu s]
	Time per iteration and DOF: 0.603000 [ns]
	Retrieve results bandwidth 2.724000 [GByte/s]
[OGL LOG][Proc: 0]p: solve_multi_gpu: 185.121 [ms]
nonehipGKOCG:  Solving for p, Initial residual = 0.0100851, Final residual = 9.97637e-05, No Iterations 301
[INFO] SolveP: 191.523 [ms]
time step continuity errors : sum local = 1.45136e-08, global = 4.01312e-21, cumulative = -1.48686e-20
[INFO] ContinuityError: 2.324 [ms]
[INFO] CorrectBoundary: 0.246 [ms]
[INFO] PISOStep: 239.155 [ms]
[INFO] TimeStep: 690.58 [ms]
ExecutionTime = 16.69 s  ClockTime = 17 s

Time = 0.009

Courant Number mean: 0.0715997 max: 0.477912
[INFO] MatrixAssemblyU: 23.59 [ms]
DILUPBiCGStab:  Solving for Ux, Initial residual = 0.00425364, Final residual = 1.1448e-05, No Iterations 5
DILUPBiCGStab:  Solving for Uy, Initial residual = 0.00918132, Final residual = 1.95957e-05, No Iterations 5
DILUPBiCGStab:  Solving for Uz, Initial residual = 0.0188781, Final residual = 4.92194e-05, No Iterations 5
[INFO] MomentumPredictor: 174.727 [ms]
[INFO] MatrixAssemblyPI: 25.323 [ms]
[INFO] AdjustPhi: 0.851 [ms]
[INFO] ConstrainPressure: 0.002 [ms]
[INFO] MatrixAssemblyPII: 8.275 [ms]
[OGL LOG][Proc: 0]: global_index_init: 0.029 [ms]
[OGL LOG][Proc: 0]p_local_coeffs: call_update: 0 [ms]
[OGL LOG][Proc: 0]p_non_local_coeffs: call_update: 0 [ms]
[OGL LOG][Proc: 0]p: update_local_matrix_data: 5.235 [ms]
[OGL LOG][Proc: 0]p: update_non_local_matrix_data: 0.044 [ms]
[OGL LOG][Proc: 0]p_matrix: call_update: 2.644 [ms]
[OGL LOG][Proc: 0]p_rhs: call_update: 0.743 [ms]
[OGL LOG][Proc: 0]p: init_precond: 0.034 [ms]
[OGL LOG][StoppingCriterion.H:372] Creating stopping criterion with minIter 180 frequency 6
[OGL LOG][Proc: 0]p: generate_solver: 0.002 [ms]
[OGL LOG][Proc: 0]p: solve: 192.321 [ms]
[OGL LOG][Proc: 0]p: copy_x_back: 0.367 [ms]
[OGL LOG][lduLduBase.H:339] 
Statistics:
	Time per iteration: 602 [mu s]
	Time per residual norm calculation: 182.000000 [mu s]
	Time per iteration and DOF: 0.602000 [ns]
	Retrieve results bandwidth 2.724000 [GByte/s]
[OGL LOG][Proc: 0]p: solve_multi_gpu: 196.321 [ms]
nonehipGKOCG:  Solving for p, Initial residual = 0.00972547, Final residual = 9.22066e-05, No Iterations 319
[INFO] SolveP: 202.654 [ms]
time step continuity errors : sum local = 1.47326e-08, global = -1.21194e-20, cumulative = -2.6988e-20
[INFO] ContinuityError: 2.433 [ms]
[INFO] CorrectBoundary: 0.345 [ms]
[INFO] PISOStep: 250.47 [ms]
[INFO] MatrixAssemblyPI: 24.835 [ms]
[INFO] AdjustPhi: 0.828 [ms]
[INFO] ConstrainPressure: 0.002 [ms]
[INFO] MatrixAssemblyPII: 7.831 [ms]
[OGL LOG][Proc: 0]: global_index_init: 0.062 [ms]
[OGL LOG][Proc: 0]p_local_coeffs: call_update: 0 [ms]
[OGL LOG][Proc: 0]p_non_local_coeffs: call_update: 0 [ms]
[OGL LOG][Proc: 0]p: update_local_matrix_data: 5.258 [ms]
[OGL LOG][Proc: 0]p: update_non_local_matrix_data: 0.043 [ms]
[OGL LOG][Proc: 0]p_matrix: call_update: 2.185 [ms]
[OGL LOG][Proc: 0]p_rhs: call_update: 0.272 [ms]
[OGL LOG][Proc: 0]p: init_precond: 0.034 [ms]
[OGL LOG][StoppingCriterion.H:372] Creating stopping criterion with minIter 191 frequency 6
[OGL LOG][Proc: 0]p: generate_solver: 0.001 [ms]
[OGL LOG][Proc: 0]p: solve: 189.586 [ms]
[OGL LOG][Proc: 0]p: copy_x_back: 0.375 [ms]
[OGL LOG][lduLduBase.H:339] 
Statistics:
	Time per iteration: 617 [mu s]
	Time per residual norm calculation: 183.000000 [mu s]
	Time per iteration and DOF: 0.617000 [ns]
	Retrieve results bandwidth 2.666000 [GByte/s]
[OGL LOG][Proc: 0]p: solve_multi_gpu: 192.669 [ms]
nonehipGKOCG:  Solving for p, Initial residual = 0.00915099, Final residual = 8.26389e-05, No Iterations 307
[INFO] SolveP: 198.995 [ms]
time step continuity errors : sum local = 1.20549e-08, global = 4.34166e-22, cumulative = -2.65538e-20
[INFO] ContinuityError: 3.93 [ms]
[INFO] CorrectBoundary: 0.17 [ms]
[INFO] PISOStep: 247.798 [ms]
[INFO] TimeStep: 699.63 [ms]
ExecutionTime = 17.38 s  ClockTime = 18 s

Time = 0.0095

Courant Number mean: 0.0726862 max: 0.478325
[INFO] MatrixAssemblyU: 23.575 [ms]
DILUPBiCGStab:  Solving for Ux, Initial residual = 0.00395799, Final residual = 1.04726e-05, No Iterations 5
DILUPBiCGStab:  Solving for Uy, Initial residual = 0.00852145, Final residual = 1.83388e-05, No Iterations 5
DILUPBiCGStab:  Solving for Uz, Initial residual = 0.0179704, Final residual = 5.04646e-05, No Iterations 5
[INFO] MomentumPredictor: 185.372 [ms]
[INFO] MatrixAssemblyPI: 23.206 [ms]
[INFO] AdjustPhi: 3.572 [ms]
[INFO] ConstrainPressure: 0.002 [ms]
[INFO] MatrixAssemblyPII: 6.929 [ms]
[OGL LOG][Proc: 0]: global_index_init: 0.01 [ms]
[OGL LOG][Proc: 0]p_local_coeffs: call_update: 0 [ms]
[OGL LOG][Proc: 0]p_non_local_coeffs: call_update: 0 [ms]
[OGL LOG][Proc: 0]p: update_local_matrix_data: 4.758 [ms]
[OGL LOG][Proc: 0]p: update_non_local_matrix_data: 0.085 [ms]
[OGL LOG][Proc: 0]p_matrix: call_update: 1.931 [ms]
[OGL LOG][Proc: 0]p_rhs: call_update: 1.706 [ms]
[OGL LOG][Proc: 0]p: init_precond: 0.031 [ms]
[OGL LOG][StoppingCriterion.H:372] Creating stopping criterion with minIter 184 frequency 6
[OGL LOG][Proc: 0]p: generate_solver: 0.002 [ms]
[OGL LOG][Proc: 0]p: solve: 403.07 [ms]
[OGL LOG][Proc: 0]p: copy_x_back: 0.368 [ms]
[OGL LOG][lduLduBase.H:339] 
Statistics:
	Time per iteration: 583 [mu s]
	Time per residual norm calculation: 172.000000 [mu s]
	Time per iteration and DOF: 0.583000 [ns]
	Retrieve results bandwidth 2.717000 [GByte/s]
[OGL LOG][Proc: 0]p: solve_multi_gpu: 407.328 [ms]
nonehipGKOCG:  Solving for p, Initial residual = 0.00897796, Final residual = 7.49827e-05, No Iterations 691
[INFO] SolveP: 413.349 [ms]
time step continuity errors : sum local = 1.04845e-08, global = -4.36475e-21, cumulative = -3.09186e-20
[INFO] ContinuityError: 4.181 [ms]
[INFO] CorrectBoundary: 0.097 [ms]
[INFO] PISOStep: 464.835 [ms]
[INFO] MatrixAssemblyPI: 24.136 [ms]
[INFO] AdjustPhi: 1.51 [ms]
[INFO] ConstrainPressure: 0.002 [ms]
[INFO] MatrixAssemblyPII: 7.738 [ms]
[OGL LOG][Proc: 0]: global_index_init: 0.039 [ms]
[OGL LOG][Proc: 0]p_local_coeffs: call_update: 0 [ms]
[OGL LOG][Proc: 0]p_non_local_coeffs: call_update: 0 [ms]
[OGL LOG][Proc: 0]p: update_local_matrix_data: 5.065 [ms]
[OGL LOG][Proc: 0]p: update_non_local_matrix_data: 0.081 [ms]
[OGL LOG][Proc: 0]p_matrix: call_update: 2.555 [ms]
[OGL LOG][Proc: 0]p_rhs: call_update: 0.194 [ms]
[OGL LOG][Proc: 0]p: init_precond: 0.034 [ms]
[OGL LOG][StoppingCriterion.H:372] Creating stopping criterion with minIter 414 frequency 9
[OGL LOG][Proc: 0]p: generate_solver: 0.003 [ms]
[OGL LOG][Proc: 0]p: solve: 413.362 [ms]
[OGL LOG][Proc: 0]p: copy_x_back: 0.368 [ms]
[OGL LOG][lduLduBase.H:339] 
Statistics:
	Time per iteration: 603 [mu s]
	Time per residual norm calculation: 184.000000 [mu s]
	Time per iteration and DOF: 0.603000 [ns]
	Retrieve results bandwidth 2.717000 [GByte/s]
[OGL LOG][Proc: 0]p: solve_multi_gpu: 416.769 [ms]
nonehipGKOCG:  Solving for p, Initial residual = 0.00850278, Final residual = 8.85039e-05, No Iterations 685
[INFO] SolveP: 423.5 [ms]
time step continuity errors : sum local = 1.23791e-08, global = 3.85449e-21, cumulative = -2.70641e-20
[INFO] ContinuityError: 4.642 [ms]
[INFO] CorrectBoundary: 0.723 [ms]
[INFO] PISOStep: 474.618 [ms]
[INFO] TimeStep: 1152.25 [ms]
ExecutionTime = 18.53 s  ClockTime = 19 s

Time = 0.01

Courant Number mean: 0.0737033 max: 0.478702
[INFO] MatrixAssemblyU: 22.999 [ms]
DILUPBiCGStab:  Solving for Ux, Initial residual = 0.003682, Final residual = 9.64391e-06, No Iterations 5
DILUPBiCGStab:  Solving for Uy, Initial residual = 0.00794931, Final residual = 1.69816e-05, No Iterations 5
DILUPBiCGStab:  Solving for Uz, Initial residual = 0.0164339, Final residual = 3.70231e-05, No Iterations 5
[INFO] MomentumPredictor: 175.127 [ms]
[INFO] MatrixAssemblyPI: 25.602 [ms]
[INFO] AdjustPhi: 1.045 [ms]
[INFO] ConstrainPressure: 0.001 [ms]
[INFO] MatrixAssemblyPII: 8.315 [ms]
[OGL LOG][Proc: 0]: global_index_init: 0.022 [ms]
[OGL LOG][Proc: 0]p_local_coeffs: call_update: 0 [ms]
[OGL LOG][Proc: 0]p_non_local_coeffs: call_update: 0 [ms]
[OGL LOG][Proc: 0]p: update_local_matrix_data: 5.124 [ms]
[OGL LOG][Proc: 0]p: update_non_local_matrix_data: 0.041 [ms]
[OGL LOG][Proc: 0]p_matrix: call_update: 1.814 [ms]
[OGL LOG][Proc: 0]p_rhs: call_update: 1.716 [ms]
[OGL LOG][Proc: 0]p: init_precond: 0.031 [ms]
[OGL LOG][StoppingCriterion.H:372] Creating stopping criterion with minIter 411 frequency 9
[OGL LOG][Proc: 0]p: generate_solver: 0.002 [ms]
[OGL LOG][Proc: 0]p: solve: 405.104 [ms]
[OGL LOG][Proc: 0]p: copy_x_back: 0.41 [ms]
[OGL LOG][lduLduBase.H:339] 
Statistics:
	Time per iteration: 591 [mu s]
	Time per residual norm calculation: 182.000000 [mu s]
	Time per iteration and DOF: 0.591000 [ns]
	Retrieve results bandwidth 2.439000 [GByte/s]
[OGL LOG][Proc: 0]p: solve_multi_gpu: 409.284 [ms]
nonehipGKOCG:  Solving for p, Initial residual = 0.00829916, Final residual = 8.94264e-05, No Iterations 685
[INFO] SolveP: 415.39 [ms]
time step continuity errors : sum local = 1.25099e-08, global = 9.77004e-22, cumulative = -2.60871e-20
[INFO] ContinuityError: 5.658 [ms]
[INFO] CorrectBoundary: 0.809 [ms]
[INFO] PISOStep: 466.756 [ms]
[INFO] MatrixAssemblyPI: 23.556 [ms]
[INFO] AdjustPhi: 2.77 [ms]
[INFO] ConstrainPressure: 0.001 [ms]
[INFO] MatrixAssemblyPII: 8.27 [ms]
[OGL LOG][Proc: 0]: global_index_init: 0.086 [ms]
[OGL LOG][Proc: 0]p_local_coeffs: call_update: 0 [ms]
[OGL LOG][Proc: 0]p_non_local_coeffs: call_update: 0 [ms]
[OGL LOG][Proc: 0]p: update_local_matrix_data: 5.213 [ms]
[OGL LOG][Proc: 0]p: update_non_local_matrix_data: 0.066 [ms]
[OGL LOG][Proc: 0]p_matrix: call_update: 1.918 [ms]
[OGL LOG][Proc: 0]p_rhs: call_update: 0.807 [ms]
[OGL LOG][Proc: 0]p: init_precond: 0.033 [ms]
[OGL LOG][StoppingCriterion.H:372] Creating stopping criterion with minIter 411 frequency 9
[OGL LOG][Proc: 0]p: generate_solver: 0.002 [ms]
[OGL LOG][Proc: 0]p: solve: 406.357 [ms]
[OGL LOG][Proc: 0]p: copy_x_back: 0.579 [ms]
[OGL LOG][lduLduBase.H:339] 
Statistics:
	Time per iteration: 593 [mu s]
	Time per residual norm calculation: 185.000000 [mu s]
	Time per iteration and DOF: 0.593000 [ns]
	Retrieve results bandwidth 1.727000 [GByte/s]
[OGL LOG][Proc: 0]p: solve_multi_gpu: 409.919 [ms]
nonehipGKOCG:  Solving for p, Initial residual = 0.00787224, Final residual = 7.85091e-05, No Iterations 685
[INFO] SolveP: 416.384 [ms]
time step continuity errors : sum local = 1.09841e-08, global = -1.40309e-21, cumulative = -2.74902e-20
[INFO] ContinuityError: 2.261 [ms]
[INFO] CorrectBoundary: 0.184 [ms]
[INFO] PISOStep: 466.189 [ms]
[INFO] TimeStep: 1134.3 [ms]
ExecutionTime = 19.65 s  ClockTime = 20 s

End

Finalising parallel run
