/*---------------------------------------------------------------------------*\
| =========                 |                                                 |
| \\      /  F ield         | OpenFOAM: The Open Source CFD Toolbox           |
|  \\    /   O peration     | Version:  v2106                                 |
|   \\  /    A nd           | Website:  www.openfoam.com                      |
|    \\/     M anipulation  |                                                 |
\*---------------------------------------------------------------------------*/
Build  : f815a12bba-20210902 OPENFOAM=2106
Arch   : "LSB;label=32;scalar=64"
Exec   : icoFoam -parallel -case /home/greole/data/code/micro_benchmarks/LidDrivenCavity3D/workspace/c2dc2c570b5921b31fe43d29023c80ee/case
Date   : Mar 06 2023
Time   : 01:49:37
Host   : nla-gpu2.ianm.kit.edu
PID    : 2122671
I/O    : uncollated
Case   : /home/greole/data/code/micro_benchmarks/LidDrivenCavity3D/workspace/c2dc2c570b5921b31fe43d29023c80ee/case
nProcs : 8
Hosts  :
(
    (nla-gpu2.ianm.kit.edu 8)
)
Pstream initialized with:
    floatTransfer      : 0
    nProcsSimpleSum    : 0
    commsType          : nonBlocking
    polling iterations : 0
trapFpe: Floating point exception trapping enabled (FOAM_SIGFPE).
fileModificationChecking : Monitoring run-time modified files using timeStampMaster (fileModificationSkew 5, maxFileModificationPolls 20)
allowSystemOperations : Allowing user-supplied system call operations

// * * * * * * * * * * * * * * * * * * * * * * * * * * * * * * * * * * * * * //
Create time

--> FOAM Warning : 
    From virtual void Foam::Time::readDict()
    in file db/Time/TimeIO.C at line 411
    Reading "/home/greole/data/code/micro_benchmarks/LidDrivenCavity3D/workspace/c2dc2c570b5921b31fe43d29023c80ee/case/system/controlDict" at line 17 to 47
    Disabled binary format compression (inefficient/ineffective)
Create mesh for time = 0


PISO: Operating solver in PISO mode

Reading transportProperties

Reading field p

Reading field U

Reading/calculating face flux field phi


Starting time loop

Time = 0.000125

Courant Number mean: 8.02505e-18 max: 4.85723e-14
[INFO] MatrixAssemblyU: 2223.84 [ms]
DILUPBiCGStab:  Solving for Ux, Initial residual = 1, Final residual = 0.0211815, No Iterations 5
DILUPBiCGStab:  Solving for Uy:  solution singularity
DILUPBiCGStab:  Solving for Uz:  solution singularity
linear solve U 7290.4 [ms]
[INFO] MomentumPredictor: 8091.8 [ms]
[INFO] MatrixAssemblyPI: 2421.68 [ms]
[INFO] AdjustPhi: 108.141 [ms]
[INFO] ConstrainPressure: 0.007 [ms]
[INFO] MatrixAssemblyPII: 655.398 [ms]
[OGL LOG][lduLduBase.H:121] Initialising OGL
	OGL commit:  84e53c6+
	Branch: HEAD 
	Build type: Debug
	Ginkgo version: 1.5.0 ( develop)
	Ginkgo commit: 6b441077b
	MPI is GPU aware: 0
	Forces host buffer based communication: 1
	CPU ranks per GPU: 1
	Matrix format: Coo
	End OGL_INFO
[OGL LOG][Proc: 0]: global_index_init: 44.198 [ms]
[OGL LOG][Proc: 0]p_local_cols: call_init: 0.27 [ms]
[OGL LOG][Proc: 0]p_local_rows: call_init: 0.013 [ms]
[OGL LOG][Proc: 0]p_local_ldu_map: call_init: 0.007 [ms]
[OGL LOG][Proc: 0]p_local_coeffs: call_init: 0.11 [ms]
[OGL LOG][Proc: 0]p_non_local_cols: call_init: 0.005 [ms]
[OGL LOG][Proc: 0]p_non_local_rows: call_init: 0.003 [ms]
[OGL LOG][Proc: 0]p_non_local_ldu_map: call_init: 0.003 [ms]
[OGL LOG][Proc: 0]p_non_local_coeffs: call_init: 0.005 [ms]
[OGL LOG][Proc: 0]p: init_local_sparsity_pattern: 11145.3 [ms]
[OGL LOG][Proc: 0]p: init_non_local_sparsity_pattern: 1566.42 [ms]
[OGL LOG][Proc: 0]p: update_local_matrix_data: 460.321 [ms]
[OGL LOG][Proc: 0]p: update_non_local_matrix_data: 466.066 [ms]
[OGL LOG][Proc: 0]device_partition: call_init: 41.374 [ms]
[OGL LOG][Proc: 0]p_matrix: call_init: 1318.79 [ms]
[OGL LOG][Proc: 0]p_rhs: call_init: 12.629 [ms]
[OGL LOG][Proc: 0]p_solution: call_init: 16.806 [ms]
[OGL LOG][Proc: 0]p: init_precond: 0.153 [ms]
[OGL LOG][StoppingCriterion.H:372] Creating stopping criterion with minIter 0 frequency 1
[OGL LOG][Proc: 0]p: generate_solver: 0.379 [ms]
[OGL LOG][Proc: 0]p: solve: 19213.4 [ms]
[OGL LOG][Proc: 0]p: copy_x_back: 38.33 [ms]
[OGL LOG][lduLduBase.H:319] 
Statistics:
	Time per iteration: 6402 [mu s]
	Time per residual norm calculation: 1969.000000 [mu s]
	Time per iteration and DOF: 0.100031 [ns]
	Retrieve results bandwith 1.669000 [GByte/s]
[OGL LOG][Proc: 0]p: solve_multi_gpu: 20644.6 [ms]
nonehipGKOCG:  Solving for p, Initial residual = 1, Final residual = 0.00226554, No Iterations 3001
linear solve p 34980.7 [ms]
[INFO] SolveP: 34980.8 [ms]
time step continuity errors : sum local = 5.76047e-08, global = -2.39701e-21, cumulative = -2.39701e-21
[INFO] ContinuityError: 239.985 [ms]
[INFO] CorrectBoundary: 5.684 [ms]
[INFO] PISOStep: 39197.5 [ms]
[INFO] MatrixAssemblyPI: 2252.03 [ms]
[INFO] AdjustPhi: 131.264 [ms]
[INFO] ConstrainPressure: 0.003 [ms]
[INFO] MatrixAssemblyPII: 683.61 [ms]
[OGL LOG][Proc: 0]: global_index_init: 0.781 [ms]
[OGL LOG][Proc: 0]p_local_coeffs: call_update: 0.001 [ms]
[OGL LOG][Proc: 0]p_non_local_coeffs: call_update: 0 [ms]
[OGL LOG][Proc: 0]p: update_local_matrix_data: 505.762 [ms]
[OGL LOG][Proc: 0]p: update_non_local_matrix_data: 31.751 [ms]
[OGL LOG][Proc: 0]p_matrix: call_update: 68.573 [ms]
[OGL LOG][Proc: 0]p_rhs: call_update: 20.561 [ms]
[OGL LOG][Proc: 0]p: init_precond: 0.097 [ms]
[OGL LOG][StoppingCriterion.H:372] Creating stopping criterion with minIter 1800 frequency 20
[OGL LOG][Proc: 0]p: generate_solver: 0.026 [ms]
[OGL LOG][Proc: 0]p: solve: 17821.8 [ms]
[OGL LOG][Proc: 0]p: copy_x_back: 33.197 [ms]
[OGL LOG][lduLduBase.H:319] 
Statistics:
	Time per iteration: 5938 [mu s]
	Time per residual norm calculation: 423.000000 [mu s]
	Time per iteration and DOF: 0.092781 [ns]
	Retrieve results bandwith 1.927000 [GByte/s]
[OGL LOG][Proc: 0]p: solve_multi_gpu: 17945.3 [ms]
nonehipGKOCG:  Solving for p, Initial residual = 0.822397, Final residual = 0.00166034, No Iterations 3001
linear solve p 18567.3 [ms]
[INFO] SolveP: 18567.4 [ms]
time step continuity errors : sum local = 5.09643e-08, global = 1.49513e-22, cumulative = -2.2475e-21
[INFO] ContinuityError: 219.854 [ms]
[INFO] CorrectBoundary: 5.648 [ms]
[INFO] PISOStep: 22663.4 [ms]
[INFO] TimeStep: 72412.1 [ms]
ExecutionTime = 77.79 s  ClockTime = 79 s

Time = 0.00025

Courant Number mean: 0.0108822 max: 0.437684
[INFO] MatrixAssemblyU: 2079.97 [ms]
DILUPBiCGStab:  Solving for Ux, Initial residual = 0.108154, Final residual = 0.0127618, No Iterations 5
DILUPBiCGStab:  Solving for Uy, Initial residual = 0.484338, Final residual = 0.0502378, No Iterations 5
DILUPBiCGStab:  Solving for Uz, Initial residual = 0.995185, Final residual = 0.116531, No Iterations 5
linear solve U 15076.3 [ms]
[INFO] MomentumPredictor: 15850.7 [ms]
[INFO] MatrixAssemblyPI: 2357.92 [ms]
[INFO] AdjustPhi: 93.657 [ms]
[INFO] ConstrainPressure: 0.004 [ms]
[INFO] MatrixAssemblyPII: 690.961 [ms]
[OGL LOG][Proc: 0]: global_index_init: 0.025 [ms]
[OGL LOG][Proc: 0]p_local_coeffs: call_update: 0 [ms]
[OGL LOG][Proc: 0]p_non_local_coeffs: call_update: 0 [ms]
[OGL LOG][Proc: 0]p: update_local_matrix_data: 524.292 [ms]
[OGL LOG][Proc: 0]p: update_non_local_matrix_data: 17.912 [ms]
[OGL LOG][Proc: 0]p_matrix: call_update: 65.336 [ms]
[OGL LOG][Proc: 0]p_rhs: call_update: 22.334 [ms]
[OGL LOG][Proc: 0]p: init_precond: 0.039 [ms]
[OGL LOG][StoppingCriterion.H:372] Creating stopping criterion with minIter 1800 frequency 9
[OGL LOG][Proc: 0]p: generate_solver: 0.021 [ms]
[OGL LOG][Proc: 0]p: solve: 19055.4 [ms]
[OGL LOG][Proc: 0]p: copy_x_back: 36.084 [ms]
[OGL LOG][lduLduBase.H:319] 
Statistics:
	Time per iteration: 5945 [mu s]
	Time per residual norm calculation: 423.000000 [mu s]
	Time per iteration and DOF: 0.092891 [ns]
	Retrieve results bandwith 1.773000 [GByte/s]
[OGL LOG][Proc: 0]p: solve_multi_gpu: 19180.2 [ms]
nonehipGKOCG:  Solving for p, Initial residual = 0.905929, Final residual = 9.73945e-05, No Iterations 3205
linear solve p 19797.4 [ms]
[INFO] SolveP: 19797.5 [ms]
time step continuity errors : sum local = 6.86428e-09, global = 3.7044e-22, cumulative = -1.87706e-21
[INFO] ContinuityError: 235.635 [ms]
[INFO] CorrectBoundary: 2.565 [ms]
[INFO] PISOStep: 23938.4 [ms]
[INFO] MatrixAssemblyPI: 2260.94 [ms]
[INFO] AdjustPhi: 122.021 [ms]
[INFO] ConstrainPressure: 0.004 [ms]
[INFO] MatrixAssemblyPII: 689.291 [ms]
[OGL LOG][Proc: 0]: global_index_init: 0.023 [ms]
[OGL LOG][Proc: 0]p_local_coeffs: call_update: 0 [ms]
[OGL LOG][Proc: 0]p_non_local_coeffs: call_update: 0 [ms]
[OGL LOG][Proc: 0]p: update_local_matrix_data: 503.106 [ms]
[OGL LOG][Proc: 0]p: update_non_local_matrix_data: 4.175 [ms]
[OGL LOG][Proc: 0]p_matrix: call_update: 63.676 [ms]
[OGL LOG][Proc: 0]p_rhs: call_update: 37.584 [ms]
[OGL LOG][Proc: 0]p: init_precond: 0.035 [ms]
[OGL LOG][StoppingCriterion.H:372] Creating stopping criterion with minIter 1923 frequency 9
[OGL LOG][Proc: 0]p: generate_solver: 0.02 [ms]
[OGL LOG][Proc: 0]p: solve: 19032.8 [ms]
[OGL LOG][Proc: 0]p: copy_x_back: 37.215 [ms]
[OGL LOG][lduLduBase.H:319] 
Statistics:
	Time per iteration: 5955 [mu s]
	Time per residual norm calculation: 433.000000 [mu s]
	Time per iteration and DOF: 0.093047 [ns]
	Retrieve results bandwith 1.719000 [GByte/s]
[OGL LOG][Proc: 0]p: solve_multi_gpu: 19172.3 [ms]
nonehipGKOCG:  Solving for p, Initial residual = 0.857781, Final residual = 9.61391e-05, No Iterations 3196
linear solve p 19759.8 [ms]
[INFO] SolveP: 19759.9 [ms]
time step continuity errors : sum local = 6.89683e-09, global = 3.20694e-22, cumulative = -1.55637e-21
[INFO] ContinuityError: 213.674 [ms]
[INFO] CorrectBoundary: 6.333 [ms]
[INFO] PISOStep: 23845 [ms]
[INFO] TimeStep: 65949.7 [ms]
ExecutionTime = 143.34 s  ClockTime = 145 s

Time = 0.000375

Courant Number mean: 0.0169894 max: 0.51134
[INFO] MatrixAssemblyU: 2087.52 [ms]
DILUPBiCGStab:  Solving for Ux, Initial residual = 0.0537318, Final residual = 0.00524853, No Iterations 5
DILUPBiCGStab:  Solving for Uy, Initial residual = 0.261862, Final residual = 0.0256291, No Iterations 5
DILUPBiCGStab:  Solving for Uz, Initial residual = 0.874892, Final residual = 0.0867919, No Iterations 5
linear solve U 15008 [ms]
[INFO] MomentumPredictor: 15783.9 [ms]
[INFO] MatrixAssemblyPI: 2344.89 [ms]
[INFO] AdjustPhi: 93.795 [ms]
[INFO] ConstrainPressure: 0.003 [ms]
[INFO] MatrixAssemblyPII: 689.756 [ms]
[OGL LOG][Proc: 0]: global_index_init: 0.038 [ms]
[OGL LOG][Proc: 0]p_local_coeffs: call_update: 0 [ms]
[OGL LOG][Proc: 0]p_non_local_coeffs: call_update: 0 [ms]
[OGL LOG][Proc: 0]p: update_local_matrix_data: 522.242 [ms]
[OGL LOG][Proc: 0]p: update_non_local_matrix_data: 23.337 [ms]
[OGL LOG][Proc: 0]p_matrix: call_update: 64.576 [ms]
[OGL LOG][Proc: 0]p_rhs: call_update: 23.229 [ms]
[OGL LOG][Proc: 0]p: init_precond: 0.037 [ms]
[OGL LOG][StoppingCriterion.H:372] Creating stopping criterion with minIter 1917 frequency 9
[OGL LOG][Proc: 0]p: generate_solver: 0.027 [ms]
[OGL LOG][Proc: 0]p: solve: 11584.2 [ms]
[OGL LOG][Proc: 0]p: copy_x_back: 39.912 [ms]
[OGL LOG][lduLduBase.H:319] 
Statistics:
	Time per iteration: 6039 [mu s]
	Time per residual norm calculation: 448.000000 [mu s]
	Time per iteration and DOF: 0.094359 [ns]
	Retrieve results bandwith 1.603000 [GByte/s]
[OGL LOG][Proc: 0]p: solve_multi_gpu: 11713.2 [ms]
nonehipGKOCG:  Solving for p, Initial residual = 0.940614, Final residual = 2.67142e-05, No Iterations 1918
linear solve p 12337 [ms]
[INFO] SolveP: 12337.1 [ms]
time step continuity errors : sum local = 2.53512e-09, global = 4.98144e-22, cumulative = -1.05822e-21
[INFO] ContinuityError: 262.66 [ms]
[INFO] CorrectBoundary: 33.581 [ms]
[INFO] PISOStep: 16484.7 [ms]
[INFO] MatrixAssemblyPI: 2294.49 [ms]
[INFO] AdjustPhi: 93.455 [ms]
[INFO] ConstrainPressure: 0.004 [ms]
[INFO] MatrixAssemblyPII: 691.775 [ms]
[OGL LOG][Proc: 0]: global_index_init: 0.023 [ms]
[OGL LOG][Proc: 0]p_local_coeffs: call_update: 0 [ms]
[OGL LOG][Proc: 0]p_non_local_coeffs: call_update: 0 [ms]
[OGL LOG][Proc: 0]p: update_local_matrix_data: 498.903 [ms]
[OGL LOG][Proc: 0]p: update_non_local_matrix_data: 4.865 [ms]
[OGL LOG][Proc: 0]p_matrix: call_update: 68.295 [ms]
[OGL LOG][Proc: 0]p_rhs: call_update: 23.961 [ms]
[OGL LOG][Proc: 0]p: init_precond: 0.03 [ms]
[OGL LOG][StoppingCriterion.H:372] Creating stopping criterion with minIter 1150 frequency 7
[OGL LOG][Proc: 0]p: generate_solver: 0.02 [ms]
[OGL LOG][Proc: 0]p: solve: 9404.89 [ms]
[OGL LOG][Proc: 0]p: copy_x_back: 35.964 [ms]
[OGL LOG][lduLduBase.H:319] 
Statistics:
	Time per iteration: 6103 [mu s]
	Time per residual norm calculation: 424.000000 [mu s]
	Time per iteration and DOF: 0.095359 [ns]
	Retrieve results bandwith 1.779000 [GByte/s]
[OGL LOG][Proc: 0]p: solve_multi_gpu: 9534.09 [ms]
nonehipGKOCG:  Solving for p, Initial residual = 0.908828, Final residual = 9.27409e-05, No Iterations 1541
linear solve p 10115.8 [ms]
[INFO] SolveP: 10115.9 [ms]
time step continuity errors : sum local = 8.18537e-09, global = 4.60572e-23, cumulative = -1.01217e-21
[INFO] ContinuityError: 200.608 [ms]
[INFO] CorrectBoundary: 13.117 [ms]
[INFO] PISOStep: 14209.6 [ms]
[INFO] TimeStep: 48798.9 [ms]
ExecutionTime = 191.9 s  ClockTime = 194 s

Time = 0.0005

Courant Number mean: 0.0206054 max: 0.477578
[INFO] MatrixAssemblyU: 2093.28 [ms]
DILUPBiCGStab:  Solving for Ux, Initial residual = 0.0416148, Final residual = 0.00486423, No Iterations 5
DILUPBiCGStab:  Solving for Uy, Initial residual = 0.214059, Final residual = 0.0232168, No Iterations 5
DILUPBiCGStab:  Solving for Uz, Initial residual = 0.78094, Final residual = 0.0636618, No Iterations 5
linear solve U 15009.5 [ms]
[INFO] MomentumPredictor: 15786.1 [ms]
[INFO] MatrixAssemblyPI: 2344.68 [ms]
[INFO] AdjustPhi: 93.821 [ms]
[INFO] ConstrainPressure: 0.003 [ms]
[INFO] MatrixAssemblyPII: 688.62 [ms]
[OGL LOG][Proc: 0]: global_index_init: 0.143 [ms]
[OGL LOG][Proc: 0]p_local_coeffs: call_update: 0 [ms]
[OGL LOG][Proc: 0]p_non_local_coeffs: call_update: 0 [ms]
[OGL LOG][Proc: 0]p: update_local_matrix_data: 523.364 [ms]
[OGL LOG][Proc: 0]p: update_non_local_matrix_data: 9.569 [ms]
[OGL LOG][Proc: 0]p_matrix: call_update: 65.128 [ms]
[OGL LOG][Proc: 0]p_rhs: call_update: 26.861 [ms]
[OGL LOG][Proc: 0]p: init_precond: 0.037 [ms]
[OGL LOG][StoppingCriterion.H:372] Creating stopping criterion with minIter 924 frequency 6
[OGL LOG][Proc: 0]p: generate_solver: 0.02 [ms]
[OGL LOG][Proc: 0]p: solve: 9257.45 [ms]
[OGL LOG][Proc: 0]p: copy_x_back: 38.068 [ms]
[OGL LOG][lduLduBase.H:319] 
Statistics:
	Time per iteration: 6118 [mu s]
	Time per residual norm calculation: 424.000000 [mu s]
	Time per iteration and DOF: 0.095594 [ns]
	Retrieve results bandwith 1.681000 [GByte/s]
[OGL LOG][Proc: 0]p: solve_multi_gpu: 9388.67 [ms]
nonehipGKOCG:  Solving for p, Initial residual = 0.936996, Final residual = 9.64088e-05, No Iterations 1513
linear solve p 10001.5 [ms]
[INFO] SolveP: 10001.6 [ms]
time step continuity errors : sum local = 1.06852e-08, global = 4.63712e-22, cumulative = -5.48455e-22
[INFO] ContinuityError: 233.741 [ms]
[INFO] CorrectBoundary: 33.566 [ms]
[INFO] PISOStep: 14137.6 [ms]
[INFO] MatrixAssemblyPI: 2290.06 [ms]
[INFO] AdjustPhi: 94.136 [ms]
[INFO] ConstrainPressure: 0.004 [ms]
[INFO] MatrixAssemblyPII: 691.115 [ms]
[OGL LOG][Proc: 0]: global_index_init: 0.065 [ms]
[OGL LOG][Proc: 0]p_local_coeffs: call_update: 0 [ms]
[OGL LOG][Proc: 0]p_non_local_coeffs: call_update: 0 [ms]
[OGL LOG][Proc: 0]p: update_local_matrix_data: 500.28 [ms]
[OGL LOG][Proc: 0]p: update_non_local_matrix_data: 5.232 [ms]
[OGL LOG][Proc: 0]p_matrix: call_update: 64.389 [ms]
[OGL LOG][Proc: 0]p_rhs: call_update: 25.193 [ms]
[OGL LOG][Proc: 0]p: init_precond: 0.032 [ms]
[OGL LOG][StoppingCriterion.H:372] Creating stopping criterion with minIter 907 frequency 6
[OGL LOG][Proc: 0]p: generate_solver: 0.021 [ms]
[OGL LOG][Proc: 0]p: solve: 9215.27 [ms]
[OGL LOG][Proc: 0]p: copy_x_back: 39.819 [ms]
[OGL LOG][lduLduBase.H:319] 
Statistics:
	Time per iteration: 6114 [mu s]
	Time per residual norm calculation: 417.000000 [mu s]
	Time per iteration and DOF: 0.095531 [ns]
	Retrieve results bandwith 1.607000 [GByte/s]
[OGL LOG][Proc: 0]p: solve_multi_gpu: 9345.72 [ms]
nonehipGKOCG:  Solving for p, Initial residual = 0.879666, Final residual = 9.83511e-05, No Iterations 1507
linear solve p 9931.97 [ms]
[INFO] SolveP: 9932.05 [ms]
time step continuity errors : sum local = 1.08647e-08, global = -4.21377e-23, cumulative = -5.90592e-22
[INFO] ContinuityError: 188.598 [ms]
[INFO] CorrectBoundary: 2.513 [ms]
[INFO] PISOStep: 14023 [ms]
[INFO] TimeStep: 46272.5 [ms]
ExecutionTime = 237.91 s  ClockTime = 240 s

Time = 0.000625

Courant Number mean: 0.0236937 max: 0.555562
[INFO] MatrixAssemblyU: 2088.16 [ms]
DILUPBiCGStab:  Solving for Ux, Initial residual = 0.0375924, Final residual = 0.00439913, No Iterations 5
DILUPBiCGStab:  Solving for Uy, Initial residual = 0.184713, Final residual = 0.0189944, No Iterations 5
DILUPBiCGStab:  Solving for Uz, Initial residual = 0.750529, Final residual = 0.05386, No Iterations 5
linear solve U 14995.8 [ms]
[INFO] MomentumPredictor: 15786.1 [ms]
[INFO] MatrixAssemblyPI: 2345.03 [ms]
[INFO] AdjustPhi: 94.108 [ms]
[INFO] ConstrainPressure: 0.003 [ms]
[INFO] MatrixAssemblyPII: 690.497 [ms]
[OGL LOG][Proc: 0]: global_index_init: 0.2 [ms]
[OGL LOG][Proc: 0]p_local_coeffs: call_update: 0 [ms]
[OGL LOG][Proc: 0]p_non_local_coeffs: call_update: 0 [ms]
[OGL LOG][Proc: 0]p: update_local_matrix_data: 520.985 [ms]
[OGL LOG][Proc: 0]p: update_non_local_matrix_data: 13.221 [ms]
[OGL LOG][Proc: 0]p_matrix: call_update: 63.491 [ms]
[OGL LOG][Proc: 0]p_rhs: call_update: 27.063 [ms]
[OGL LOG][Proc: 0]p: init_precond: 0.031 [ms]
[OGL LOG][StoppingCriterion.H:372] Creating stopping criterion with minIter 904 frequency 6
[OGL LOG][Proc: 0]p: generate_solver: 0.025 [ms]
[OGL LOG][Proc: 0]p: solve: 17974.2 [ms]
[OGL LOG][Proc: 0]p: copy_x_back: 41.87 [ms]
[OGL LOG][lduLduBase.H:319] 
Statistics:
	Time per iteration: 5989 [mu s]
	Time per residual norm calculation: 438.000000 [mu s]
	Time per iteration and DOF: 0.093578 [ns]
	Retrieve results bandwith 1.528000 [GByte/s]
[OGL LOG][Proc: 0]p: solve_multi_gpu: 18107.5 [ms]
nonehipGKOCG:  Solving for p, Initial residual = 0.953589, Final residual = 0.000295195, No Iterations 3001
linear solve p 18719.1 [ms]
[INFO] SolveP: 18719.2 [ms]
time step continuity errors : sum local = 3.65104e-08, global = 1.32152e-21, cumulative = 7.30932e-22
[INFO] ContinuityError: 260.241 [ms]
[INFO] CorrectBoundary: 11.065 [ms]
[INFO] PISOStep: 22862.2 [ms]
[INFO] MatrixAssemblyPI: 2285.71 [ms]
[INFO] AdjustPhi: 93.647 [ms]
[INFO] ConstrainPressure: 0.004 [ms]
[INFO] MatrixAssemblyPII: 691.258 [ms]
[OGL LOG][Proc: 0]: global_index_init: 0.088 [ms]
[OGL LOG][Proc: 0]p_local_coeffs: call_update: 0 [ms]
[OGL LOG][Proc: 0]p_non_local_coeffs: call_update: 0 [ms]
[OGL LOG][Proc: 0]p: update_local_matrix_data: 498.272 [ms]
[OGL LOG][Proc: 0]p: update_non_local_matrix_data: 49.232 [ms]
[OGL LOG][Proc: 0]p_matrix: call_update: 60.517 [ms]
[OGL LOG][Proc: 0]p_rhs: call_update: 23.006 [ms]
[OGL LOG][Proc: 0]p: init_precond: 0.034 [ms]
[OGL LOG][StoppingCriterion.H:372] Creating stopping criterion with minIter 1800 frequency 9
[OGL LOG][Proc: 0]p: generate_solver: 0.027 [ms]
[OGL LOG][Proc: 0]p: solve: 18485.3 [ms]
[OGL LOG][Proc: 0]p: copy_x_back: 36.502 [ms]
[OGL LOG][lduLduBase.H:319] 
Statistics:
	Time per iteration: 5951 [mu s]
	Time per residual norm calculation: 408.000000 [mu s]
	Time per iteration and DOF: 0.092984 [ns]
	Retrieve results bandwith 1.753000 [GByte/s]
[OGL LOG][Proc: 0]p: solve_multi_gpu: 18606.3 [ms]
nonehipGKOCG:  Solving for p, Initial residual = 0.915157, Final residual = 9.7988e-05, No Iterations 3106
linear solve p 19232 [ms]
[INFO] SolveP: 19232.1 [ms]
time step continuity errors : sum local = 1.20472e-08, global = 6.57751e-22, cumulative = 1.38868e-21
[INFO] ContinuityError: 239.572 [ms]
[INFO] CorrectBoundary: 18.4 [ms]
[INFO] PISOStep: 23312.8 [ms]
[INFO] TimeStep: 64282.5 [ms]
ExecutionTime = 301.87 s  ClockTime = 304 s

Time = 0.00075

Courant Number mean: 0.0260428 max: 0.48342
[INFO] MatrixAssemblyU: 2084.35 [ms]
DILUPBiCGStab:  Solving for Ux, Initial residual = 0.0353811, Final residual = 0.00411447, No Iterations 5
DILUPBiCGStab:  Solving for Uy, Initial residual = 0.171372, Final residual = 0.0161139, No Iterations 5
DILUPBiCGStab:  Solving for Uz, Initial residual = 0.693714, Final residual = 0.0455657, No Iterations 5
linear solve U 15010.6 [ms]
[INFO] MomentumPredictor: 15804.7 [ms]
[INFO] MatrixAssemblyPI: 2342.16 [ms]
[INFO] AdjustPhi: 94.012 [ms]
[INFO] ConstrainPressure: 0.003 [ms]
[INFO] MatrixAssemblyPII: 687.336 [ms]
[OGL LOG][Proc: 0]: global_index_init: 0.024 [ms]
[OGL LOG][Proc: 0]p_local_coeffs: call_update: 0 [ms]
[OGL LOG][Proc: 0]p_non_local_coeffs: call_update: 0 [ms]
[OGL LOG][Proc: 0]p: update_local_matrix_data: 524.938 [ms]
[OGL LOG][Proc: 0]p: update_non_local_matrix_data: 5.801 [ms]
[OGL LOG][Proc: 0]p_matrix: call_update: 67.534 [ms]
[OGL LOG][Proc: 0]p_rhs: call_update: 19.906 [ms]
[OGL LOG][Proc: 0]p: init_precond: 0.035 [ms]
[OGL LOG][StoppingCriterion.H:372] Creating stopping criterion with minIter 1863 frequency 9
[OGL LOG][Proc: 0]p: generate_solver: 0.02 [ms]
[OGL LOG][Proc: 0]p: solve: 18431.6 [ms]
[OGL LOG][Proc: 0]p: copy_x_back: 37.799 [ms]
[OGL LOG][lduLduBase.H:319] 
Statistics:
	Time per iteration: 5951 [mu s]
	Time per residual norm calculation: 434.000000 [mu s]
	Time per iteration and DOF: 0.092984 [ns]
	Retrieve results bandwith 1.693000 [GByte/s]
[OGL LOG][Proc: 0]p: solve_multi_gpu: 18557.8 [ms]
nonehipGKOCG:  Solving for p, Initial residual = 0.950454, Final residual = 9.85446e-05, No Iterations 3097
linear solve p 19166.2 [ms]
[INFO] SolveP: 19166.3 [ms]
time step continuity errors : sum local = 1.40621e-08, global = 3.54292e-22, cumulative = 1.74297e-21
[INFO] ContinuityError: 188.425 [ms]
[INFO] CorrectBoundary: 3.122 [ms]
[INFO] PISOStep: 23305.4 [ms]
[INFO] MatrixAssemblyPI: 2285.53 [ms]
[INFO] AdjustPhi: 93.903 [ms]
[INFO] ConstrainPressure: 0.004 [ms]
[INFO] MatrixAssemblyPII: 688.542 [ms]
[OGL LOG][Proc: 0]: global_index_init: 0.194 [ms]
[OGL LOG][Proc: 0]p_local_coeffs: call_update: 0 [ms]
[OGL LOG][Proc: 0]p_non_local_coeffs: call_update: 0 [ms]
[OGL LOG][Proc: 0]p: update_local_matrix_data: 520.719 [ms]
[OGL LOG][Proc: 0]p: update_non_local_matrix_data: 4.704 [ms]
[OGL LOG][Proc: 0]p_matrix: call_update: 67.143 [ms]
[OGL LOG][Proc: 0]p_rhs: call_update: 20.324 [ms]
[OGL LOG][Proc: 0]p: init_precond: 0.034 [ms]
[OGL LOG][StoppingCriterion.H:372] Creating stopping criterion with minIter 1858 frequency 9
[OGL LOG][Proc: 0]p: generate_solver: 0.02 [ms]
[OGL LOG][Proc: 0]p: solve: 18417.9 [ms]
[OGL LOG][Proc: 0]p: copy_x_back: 36.717 [ms]
[OGL LOG][lduLduBase.H:319] 
Statistics:
	Time per iteration: 5947 [mu s]
	Time per residual norm calculation: 438.000000 [mu s]
	Time per iteration and DOF: 0.092922 [ns]
	Retrieve results bandwith 1.743000 [GByte/s]
[OGL LOG][Proc: 0]p: solve_multi_gpu: 18543.3 [ms]
nonehipGKOCG:  Solving for p, Initial residual = 0.890849, Final residual = 9.36535e-05, No Iterations 3097
linear solve p 19152.9 [ms]
[INFO] SolveP: 19153 [ms]
time step continuity errors : sum local = 1.35762e-08, global = 2.78275e-22, cumulative = 2.02125e-21
[INFO] ContinuityError: 266.536 [ms]
[INFO] CorrectBoundary: 32.324 [ms]
[INFO] PISOStep: 23239.7 [ms]
[INFO] TimeStep: 64667.9 [ms]
ExecutionTime = 366.17 s  ClockTime = 369 s

Time = 0.000875

Courant Number mean: 0.0282638 max: 0.61146
[INFO] MatrixAssemblyU: 2105.86 [ms]
DILUPBiCGStab:  Solving for Ux, Initial residual = 0.0350639, Final residual = 0.00388869, No Iterations 5
DILUPBiCGStab:  Solving for Uy, Initial residual = 0.176348, Final residual = 0.0153414, No Iterations 5
DILUPBiCGStab:  Solving for Uz, Initial residual = 0.691376, Final residual = 0.040726, No Iterations 5
linear solve U 14994.9 [ms]
[INFO] MomentumPredictor: 15773.6 [ms]
[INFO] MatrixAssemblyPI: 2355.74 [ms]
[INFO] AdjustPhi: 101.025 [ms]
[INFO] ConstrainPressure: 0.004 [ms]
[INFO] MatrixAssemblyPII: 687.194 [ms]
[OGL LOG][Proc: 0]: global_index_init: 0.205 [ms]
[OGL LOG][Proc: 0]p_local_coeffs: call_update: 0 [ms]
[OGL LOG][Proc: 0]p_non_local_coeffs: call_update: 0 [ms]
[OGL LOG][Proc: 0]p: update_local_matrix_data: 520.774 [ms]
[OGL LOG][Proc: 0]p: update_non_local_matrix_data: 21.412 [ms]
[OGL LOG][Proc: 0]p_matrix: call_update: 60.933 [ms]
[OGL LOG][Proc: 0]p_rhs: call_update: 24.837 [ms]
[OGL LOG][Proc: 0]p: init_precond: 0.034 [ms]
[OGL LOG][StoppingCriterion.H:372] Creating stopping criterion with minIter 1858 frequency 9
[OGL LOG][Proc: 0]p: generate_solver: 0.018 [ms]
[OGL LOG][Proc: 0]p: solve: 18319.5 [ms]
[OGL LOG][Proc: 0]p: copy_x_back: 39.516 [ms]
[OGL LOG][lduLduBase.H:319] 
Statistics:
	Time per iteration: 5932 [mu s]
	Time per residual norm calculation: 416.000000 [mu s]
	Time per iteration and DOF: 0.092688 [ns]
	Retrieve results bandwith 1.619000 [GByte/s]
[OGL LOG][Proc: 0]p: solve_multi_gpu: 18445.9 [ms]
nonehipGKOCG:  Solving for p, Initial residual = 0.961412, Final residual = 9.2837e-05, No Iterations 3088
linear solve p 19062.6 [ms]
[INFO] SolveP: 19062.6 [ms]
time step continuity errors : sum local = 1.49879e-08, global = 4.56261e-22, cumulative = 2.47751e-21
[INFO] ContinuityError: 234.698 [ms]
[INFO] CorrectBoundary: 1.855 [ms]
[INFO] PISOStep: 23212.4 [ms]
[INFO] MatrixAssemblyPI: 2254.95 [ms]
[INFO] AdjustPhi: 132.234 [ms]
[INFO] ConstrainPressure: 0.004 [ms]
[INFO] MatrixAssemblyPII: 688.137 [ms]
[OGL LOG][Proc: 0]: global_index_init: 0.133 [ms]
[OGL LOG][Proc: 0]p_local_coeffs: call_update: 0 [ms]
[OGL LOG][Proc: 0]p_non_local_coeffs: call_update: 0 [ms]
[OGL LOG][Proc: 0]p: update_local_matrix_data: 497.882 [ms]
[OGL LOG][Proc: 0]p: update_non_local_matrix_data: 4.392 [ms]
[OGL LOG][Proc: 0]p_matrix: call_update: 59.526 [ms]
[OGL LOG][Proc: 0]p_rhs: call_update: 37.174 [ms]
[OGL LOG][Proc: 0]p: init_precond: 0.041 [ms]
[OGL LOG][StoppingCriterion.H:372] Creating stopping criterion with minIter 1852 frequency 9
[OGL LOG][Proc: 0]p: generate_solver: 0.02 [ms]
[OGL LOG][Proc: 0]p: solve: 18345.6 [ms]
[OGL LOG][Proc: 0]p: copy_x_back: 40.484 [ms]
[OGL LOG][lduLduBase.H:319] 
Statistics:
	Time per iteration: 5958 [mu s]
	Time per residual norm calculation: 432.000000 [mu s]
	Time per iteration and DOF: 0.093094 [ns]
	Retrieve results bandwith 1.580000 [GByte/s]
[OGL LOG][Proc: 0]p: solve_multi_gpu: 18484 [ms]
nonehipGKOCG:  Solving for p, Initial residual = 0.917507, Final residual = 9.99545e-05, No Iterations 3079
linear solve p 19062.8 [ms]
[INFO] SolveP: 19062.9 [ms]
time step continuity errors : sum local = 1.60782e-08, global = -5.63775e-23, cumulative = 2.42113e-21
[INFO] ContinuityError: 212.868 [ms]
[INFO] CorrectBoundary: 4.461 [ms]
[INFO] PISOStep: 23149.6 [ms]
[INFO] TimeStep: 64474.7 [ms]
ExecutionTime = 430.33 s  ClockTime = 433 s

Time = 0.001

Courant Number mean: 0.0300282 max: 0.490996
[INFO] MatrixAssemblyU: 2094.94 [ms]
DILUPBiCGStab:  Solving for Ux, Initial residual = 0.0362135, Final residual = 0.00374585, No Iterations 5
DILUPBiCGStab:  Solving for Uy, Initial residual = 0.170064, Final residual = 0.0132309, No Iterations 5
DILUPBiCGStab:  Solving for Uz, Initial residual = 0.67767, Final residual = 0.0377538, No Iterations 5
linear solve U 14990 [ms]
[INFO] MomentumPredictor: 15775.5 [ms]
[INFO] MatrixAssemblyPI: 2342.33 [ms]
[INFO] AdjustPhi: 94.154 [ms]
[INFO] ConstrainPressure: 0.003 [ms]
[INFO] MatrixAssemblyPII: 690.075 [ms]
[OGL LOG][Proc: 0]: global_index_init: 0.229 [ms]
[OGL LOG][Proc: 0]p_local_coeffs: call_update: 0 [ms]
[OGL LOG][Proc: 0]p_non_local_coeffs: call_update: 0 [ms]
[OGL LOG][Proc: 0]p: update_local_matrix_data: 520.633 [ms]
[OGL LOG][Proc: 0]p: update_non_local_matrix_data: 19.38 [ms]
[OGL LOG][Proc: 0]p_matrix: call_update: 70.462 [ms]
[OGL LOG][Proc: 0]p_rhs: call_update: 22.067 [ms]
[OGL LOG][Proc: 0]p: init_precond: 0.033 [ms]
[OGL LOG][StoppingCriterion.H:372] Creating stopping criterion with minIter 1847 frequency 9
[OGL LOG][Proc: 0]p: generate_solver: 0.019 [ms]
[OGL LOG][Proc: 0]p: solve: 18349.9 [ms]
[OGL LOG][Proc: 0]p: copy_x_back: 40.117 [ms]
[OGL LOG][lduLduBase.H:319] 
Statistics:
	Time per iteration: 5959 [mu s]
	Time per residual norm calculation: 425.000000 [mu s]
	Time per iteration and DOF: 0.093109 [ns]
	Retrieve results bandwith 1.595000 [GByte/s]
[OGL LOG][Proc: 0]p: solve_multi_gpu: 18483.6 [ms]
nonehipGKOCG:  Solving for p, Initial residual = 0.959312, Final residual = 9.75261e-05, No Iterations 3079
linear solve p 19099.1 [ms]
[INFO] SolveP: 19099.1 [ms]
time step continuity errors : sum local = 1.81184e-08, global = 1.107e-22, cumulative = 2.53183e-21
[INFO] ContinuityError: 215.411 [ms]
[INFO] CorrectBoundary: 3.934 [ms]
[INFO] PISOStep: 23237.7 [ms]
[INFO] MatrixAssemblyPI: 2287.51 [ms]
[INFO] AdjustPhi: 98.012 [ms]
[INFO] ConstrainPressure: 0.004 [ms]
[INFO] MatrixAssemblyPII: 691.072 [ms]
[OGL LOG][Proc: 0]: global_index_init: 0.243 [ms]
[OGL LOG][Proc: 0]p_local_coeffs: call_update: 0 [ms]
[OGL LOG][Proc: 0]p_non_local_coeffs: call_update: 0 [ms]
[OGL LOG][Proc: 0]p: update_local_matrix_data: 503.761 [ms]
[OGL LOG][Proc: 0]p: update_non_local_matrix_data: 40.542 [ms]
[OGL LOG][Proc: 0]p_matrix: call_update: 60.137 [ms]
[OGL LOG][Proc: 0]p_rhs: call_update: 22.843 [ms]
[OGL LOG][Proc: 0]p: init_precond: 0.031 [ms]
[OGL LOG][StoppingCriterion.H:372] Creating stopping criterion with minIter 1847 frequency 9
[OGL LOG][Proc: 0]p: generate_solver: 0.021 [ms]
[OGL LOG][Proc: 0]p: solve: 18288.5 [ms]
[OGL LOG][Proc: 0]p: copy_x_back: 41.296 [ms]
[OGL LOG][lduLduBase.H:319] 
Statistics:
	Time per iteration: 5939 [mu s]
	Time per residual norm calculation: 408.000000 [mu s]
	Time per iteration and DOF: 0.092797 [ns]
	Retrieve results bandwith 1.549000 [GByte/s]
[OGL LOG][Proc: 0]p: solve_multi_gpu: 18413.7 [ms]
nonehipGKOCG:  Solving for p, Initial residual = 0.897738, Final residual = 9.45257e-05, No Iterations 3079
linear solve p 19031.3 [ms]
[INFO] SolveP: 19031.4 [ms]
time step continuity errors : sum local = 1.78217e-08, global = -6.05522e-23, cumulative = 2.47128e-21
[INFO] ContinuityError: 236.228 [ms]
[INFO] CorrectBoundary: 7.084 [ms]
[INFO] PISOStep: 23107.3 [ms]
[INFO] TimeStep: 64452.1 [ms]
ExecutionTime = 494.43 s  ClockTime = 498 s

Time = 0.001125

Courant Number mean: 0.0318556 max: 0.695087
[INFO] MatrixAssemblyU: 2087.29 [ms]
DILUPBiCGStab:  Solving for Ux, Initial residual = 0.0374948, Final residual = 0.00354476, No Iterations 5
DILUPBiCGStab:  Solving for Uy, Initial residual = 0.187145, Final residual = 0.0137041, No Iterations 5
DILUPBiCGStab:  Solving for Uz, Initial residual = 0.690217, Final residual = 0.0361461, No Iterations 5
linear solve U 15003.2 [ms]
[INFO] MomentumPredictor: 15797.3 [ms]
[INFO] MatrixAssemblyPI: 2342.65 [ms]
[INFO] AdjustPhi: 93.984 [ms]
[INFO] ConstrainPressure: 0.004 [ms]
[INFO] MatrixAssemblyPII: 687.994 [ms]
[OGL LOG][Proc: 0]: global_index_init: 0.459 [ms]
[OGL LOG][Proc: 0]p_local_coeffs: call_update: 0 [ms]
[OGL LOG][Proc: 0]p_non_local_coeffs: call_update: 0 [ms]
[OGL LOG][Proc: 0]p: update_local_matrix_data: 515.075 [ms]
[OGL LOG][Proc: 0]p: update_non_local_matrix_data: 5.578 [ms]
[OGL LOG][Proc: 0]p_matrix: call_update: 65.661 [ms]
[OGL LOG][Proc: 0]p_rhs: call_update: 23.674 [ms]
[OGL LOG][Proc: 0]p: init_precond: 0.036 [ms]
[OGL LOG][StoppingCriterion.H:372] Creating stopping criterion with minIter 1847 frequency 9
[OGL LOG][Proc: 0]p: generate_solver: 0.021 [ms]
[OGL LOG][Proc: 0]p: solve: 18273.3 [ms]
[OGL LOG][Proc: 0]p: copy_x_back: 35.613 [ms]
[OGL LOG][lduLduBase.H:319] 
Statistics:
	Time per iteration: 5934 [mu s]
	Time per residual norm calculation: 430.000000 [mu s]
	Time per iteration and DOF: 0.092719 [ns]
	Retrieve results bandwith 1.797000 [GByte/s]
[OGL LOG][Proc: 0]p: solve_multi_gpu: 18399.3 [ms]
nonehipGKOCG:  Solving for p, Initial residual = 0.96739, Final residual = 9.59046e-05, No Iterations 3079
linear solve p 18998.9 [ms]
[INFO] SolveP: 18999 [ms]
time step continuity errors : sum local = 2.04626e-08, global = 4.80857e-22, cumulative = 2.95214e-21
[INFO] ContinuityError: 227.457 [ms]
[INFO] CorrectBoundary: 3.166 [ms]
[INFO] PISOStep: 23135.8 [ms]
[INFO] MatrixAssemblyPI: 2265.25 [ms]
[INFO] AdjustPhi: 116.33 [ms]
[INFO] ConstrainPressure: 0.003 [ms]
[INFO] MatrixAssemblyPII: 679.355 [ms]
[OGL LOG][Proc: 0]: global_index_init: 0.744 [ms]
[OGL LOG][Proc: 0]p_local_coeffs: call_update: 0 [ms]
[OGL LOG][Proc: 0]p_non_local_coeffs: call_update: 0 [ms]
[OGL LOG][Proc: 0]p: update_local_matrix_data: 519.527 [ms]
[OGL LOG][Proc: 0]p: update_non_local_matrix_data: 20.094 [ms]
[OGL LOG][Proc: 0]p_matrix: call_update: 60.718 [ms]
[OGL LOG][Proc: 0]p_rhs: call_update: 21.945 [ms]
[OGL LOG][Proc: 0]p: init_precond: 0.036 [ms]
[OGL LOG][StoppingCriterion.H:372] Creating stopping criterion with minIter 1847 frequency 9
[OGL LOG][Proc: 0]p: generate_solver: 0.021 [ms]
[OGL LOG][Proc: 0]p: solve: 18353.6 [ms]
[OGL LOG][Proc: 0]p: copy_x_back: 38.165 [ms]
[OGL LOG][lduLduBase.H:319] 
Statistics:
	Time per iteration: 5960 [mu s]
	Time per residual norm calculation: 440.000000 [mu s]
	Time per iteration and DOF: 0.093125 [ns]
	Retrieve results bandwith 1.676000 [GByte/s]
[OGL LOG][Proc: 0]p: solve_multi_gpu: 18475.4 [ms]
nonehipGKOCG:  Solving for p, Initial residual = 0.918672, Final residual = 9.7537e-05, No Iterations 3079
linear solve p 19090.8 [ms]
[INFO] SolveP: 19090.8 [ms]
time step continuity errors : sum local = 2.07834e-08, global = 5.70994e-22, cumulative = 3.52313e-21
[INFO] ContinuityError: 259.636 [ms]
[INFO] CorrectBoundary: 4.013 [ms]
[INFO] PISOStep: 23178.8 [ms]
[INFO] TimeStep: 64432.6 [ms]
ExecutionTime = 558.52 s  ClockTime = 562 s

Time = 0.00125

Courant Number mean: 0.0332826 max: 0.507041
[INFO] MatrixAssemblyU: 2087.95 [ms]
DILUPBiCGStab:  Solving for Ux, Initial residual = 0.0409476, Final residual = 0.00360769, No Iterations 5
DILUPBiCGStab:  Solving for Uy, Initial residual = 0.18607, Final residual = 0.0120929, No Iterations 5
DILUPBiCGStab:  Solving for Uz, Initial residual = 0.690893, Final residual = 0.0348409, No Iterations 5
linear solve U 15018.3 [ms]
[INFO] MomentumPredictor: 15811.5 [ms]
[INFO] MatrixAssemblyPI: 2343.67 [ms]
[INFO] AdjustPhi: 94.056 [ms]
[INFO] ConstrainPressure: 0.003 [ms]
[INFO] MatrixAssemblyPII: 692.1 [ms]
[OGL LOG][Proc: 0]: global_index_init: 0.028 [ms]
[OGL LOG][Proc: 0]p_local_coeffs: call_update: 0 [ms]
[OGL LOG][Proc: 0]p_non_local_coeffs: call_update: 0 [ms]
[OGL LOG][Proc: 0]p: update_local_matrix_data: 519.146 [ms]
[OGL LOG][Proc: 0]p: update_non_local_matrix_data: 18.329 [ms]
[OGL LOG][Proc: 0]p_matrix: call_update: 67.395 [ms]
[OGL LOG][Proc: 0]p_rhs: call_update: 23.798 [ms]
[OGL LOG][Proc: 0]p: init_precond: 0.044 [ms]
[OGL LOG][StoppingCriterion.H:372] Creating stopping criterion with minIter 1847 frequency 9
[OGL LOG][Proc: 0]p: generate_solver: 0.022 [ms]
[OGL LOG][Proc: 0]p: solve: 18300.2 [ms]
[OGL LOG][Proc: 0]p: copy_x_back: 40.798 [ms]
[OGL LOG][lduLduBase.H:319] 
Statistics:
	Time per iteration: 5943 [mu s]
	Time per residual norm calculation: 414.000000 [mu s]
	Time per iteration and DOF: 0.092859 [ns]
	Retrieve results bandwith 1.568000 [GByte/s]
[OGL LOG][Proc: 0]p: solve_multi_gpu: 18433.2 [ms]
nonehipGKOCG:  Solving for p, Initial residual = 0.966735, Final residual = 9.47506e-05, No Iterations 3079
linear solve p 19044.9 [ms]
[INFO] SolveP: 19045 [ms]
time step continuity errors : sum local = 2.35735e-08, global = 1.0393e-21, cumulative = 4.56243e-21
[INFO] ContinuityError: 235.962 [ms]
[INFO] CorrectBoundary: 2.879 [ms]
[INFO] PISOStep: 23169.7 [ms]
[INFO] MatrixAssemblyPI: 2230.2 [ms]
[INFO] AdjustPhi: 156.124 [ms]
[INFO] ConstrainPressure: 0.004 [ms]
[INFO] MatrixAssemblyPII: 689.351 [ms]
[OGL LOG][Proc: 0]: global_index_init: 0.117 [ms]
[OGL LOG][Proc: 0]p_local_coeffs: call_update: 0 [ms]
[OGL LOG][Proc: 0]p_non_local_coeffs: call_update: 0 [ms]
[OGL LOG][Proc: 0]p: update_local_matrix_data: 495.198 [ms]
[OGL LOG][Proc: 0]p: update_non_local_matrix_data: 7.463 [ms]
[OGL LOG][Proc: 0]p_matrix: call_update: 66.012 [ms]
[OGL LOG][Proc: 0]p_rhs: call_update: 33.736 [ms]
[OGL LOG][Proc: 0]p: init_precond: 0.034 [ms]
[OGL LOG][StoppingCriterion.H:372] Creating stopping criterion with minIter 1847 frequency 9
[OGL LOG][Proc: 0]p: generate_solver: 0.019 [ms]
[OGL LOG][Proc: 0]p: solve: 18359.4 [ms]
[OGL LOG][Proc: 0]p: copy_x_back: 39.765 [ms]
[OGL LOG][lduLduBase.H:319] 
Statistics:
	Time per iteration: 5962 [mu s]
	Time per residual norm calculation: 417.000000 [mu s]
	Time per iteration and DOF: 0.093156 [ns]
	Retrieve results bandwith 1.609000 [GByte/s]
[OGL LOG][Proc: 0]p: solve_multi_gpu: 18500 [ms]
nonehipGKOCG:  Solving for p, Initial residual = 0.903595, Final residual = 9.51818e-05, No Iterations 3079
linear solve p 19080.4 [ms]
[INFO] SolveP: 19080.5 [ms]
time step continuity errors : sum local = 2.4e-08, global = 8.12382e-22, cumulative = 5.37481e-21
[INFO] ContinuityError: 215.351 [ms]
[INFO] CorrectBoundary: 5.311 [ms]
[INFO] PISOStep: 23171.5 [ms]
[INFO] TimeStep: 64475.1 [ms]
ExecutionTime = 622.6 s  ClockTime = 627 s

Time = 0.001375

Courant Number mean: 0.0349035 max: 0.825973
[INFO] MatrixAssemblyU: 2090.06 [ms]
DILUPBiCGStab:  Solving for Ux, Initial residual = 0.0437674, Final residual = 0.00345784, No Iterations 5
DILUPBiCGStab:  Solving for Uy, Initial residual = 0.21011, Final residual = 0.0131204, No Iterations 5
DILUPBiCGStab:  Solving for Uz, Initial residual = 0.705755, Final residual = 0.0342944, No Iterations 5
linear solve U 14992.2 [ms]
[INFO] MomentumPredictor: 15778.2 [ms]
[INFO] MatrixAssemblyPI: 2345.45 [ms]
[INFO] AdjustPhi: 94.271 [ms]
[INFO] ConstrainPressure: 0.003 [ms]
[INFO] MatrixAssemblyPII: 690.323 [ms]
[OGL LOG][Proc: 0]: global_index_init: 0.069 [ms]
[OGL LOG][Proc: 0]p_local_coeffs: call_update: 0 [ms]
[OGL LOG][Proc: 0]p_non_local_coeffs: call_update: 0 [ms]
[OGL LOG][Proc: 0]p: update_local_matrix_data: 520.107 [ms]
[OGL LOG][Proc: 0]p: update_non_local_matrix_data: 15.637 [ms]
[OGL LOG][Proc: 0]p_matrix: call_update: 61.851 [ms]
[OGL LOG][Proc: 0]p_rhs: call_update: 38.398 [ms]
[OGL LOG][Proc: 0]p: init_precond: 0.033 [ms]
[OGL LOG][StoppingCriterion.H:372] Creating stopping criterion with minIter 1847 frequency 9
[OGL LOG][Proc: 0]p: generate_solver: 0.023 [ms]
[OGL LOG][Proc: 0]p: solve: 18315.4 [ms]
[OGL LOG][Proc: 0]p: copy_x_back: 37.809 [ms]
[OGL LOG][lduLduBase.H:319] 
Statistics:
	Time per iteration: 5965 [mu s]
	Time per residual norm calculation: 433.000000 [mu s]
	Time per iteration and DOF: 0.093203 [ns]
	Retrieve results bandwith 1.692000 [GByte/s]
[OGL LOG][Proc: 0]p: solve_multi_gpu: 18454.4 [ms]
nonehipGKOCG:  Solving for p, Initial residual = 0.972354, Final residual = 9.97697e-05, No Iterations 3070
linear solve p 19066.8 [ms]
[INFO] SolveP: 19066.8 [ms]
time step continuity errors : sum local = 2.88629e-08, global = -3.06832e-23, cumulative = 5.34413e-21
[INFO] ContinuityError: 212.032 [ms]
[INFO] CorrectBoundary: 3.889 [ms]
[INFO] PISOStep: 23208.3 [ms]
[INFO] MatrixAssemblyPI: 2287.85 [ms]
[INFO] AdjustPhi: 93.794 [ms]
[INFO] ConstrainPressure: 0.004 [ms]
[INFO] MatrixAssemblyPII: 691.029 [ms]
[OGL LOG][Proc: 0]: global_index_init: 0.324 [ms]
[OGL LOG][Proc: 0]p_local_coeffs: call_update: 0 [ms]
[OGL LOG][Proc: 0]p_non_local_coeffs: call_update: 0 [ms]
[OGL LOG][Proc: 0]p: update_local_matrix_data: 525.882 [ms]
[OGL LOG][Proc: 0]p: update_non_local_matrix_data: 21.082 [ms]
[OGL LOG][Proc: 0]p_matrix: call_update: 64.077 [ms]
[OGL LOG][Proc: 0]p_rhs: call_update: 21.829 [ms]
[OGL LOG][Proc: 0]p: init_precond: 0.035 [ms]
[OGL LOG][StoppingCriterion.H:372] Creating stopping criterion with minIter 1842 frequency 9
[OGL LOG][Proc: 0]p: generate_solver: 0.02 [ms]
[OGL LOG][Proc: 0]p: solve: 17985.7 [ms]
[OGL LOG][Proc: 0]p: copy_x_back: 38.768 [ms]
[OGL LOG][lduLduBase.H:319] 
Statistics:
	Time per iteration: 5945 [mu s]
	Time per residual norm calculation: 407.000000 [mu s]
	Time per iteration and DOF: 0.092891 [ns]
	Retrieve results bandwith 1.650000 [GByte/s]
[OGL LOG][Proc: 0]p: solve_multi_gpu: 18111.3 [ms]
nonehipGKOCG:  Solving for p, Initial residual = 0.919725, Final residual = 9.85744e-05, No Iterations 3025
linear solve p 18732.2 [ms]
[INFO] SolveP: 18732.3 [ms]
time step continuity errors : sum local = 2.85367e-08, global = 8.28499e-22, cumulative = 6.17263e-21
[INFO] ContinuityError: 237.251 [ms]
[INFO] CorrectBoundary: 2.29 [ms]
[INFO] PISOStep: 22801.5 [ms]
[INFO] TimeStep: 64111.5 [ms]
ExecutionTime = 686.33 s  ClockTime = 691 s

Time = 0.0015

Courant Number mean: 0.0361118 max: 0.598567
[INFO] MatrixAssemblyU: 2087.41 [ms]
DILUPBiCGStab:  Solving for Ux, Initial residual = 0.0493573, Final residual = 0.00365718, No Iterations 5
DILUPBiCGStab:  Solving for Uy, Initial residual = 0.214656, Final residual = 0.0120465, No Iterations 5
DILUPBiCGStab:  Solving for Uz, Initial residual = 0.710419, Final residual = 0.0339836, No Iterations 5
linear solve U 15017.7 [ms]
[INFO] MomentumPredictor: 15810.8 [ms]
[INFO] MatrixAssemblyPI: 2345.89 [ms]
[INFO] AdjustPhi: 94.044 [ms]
[INFO] ConstrainPressure: 0.003 [ms]
[INFO] MatrixAssemblyPII: 691.961 [ms]
[OGL LOG][Proc: 0]: global_index_init: 0.109 [ms]
[OGL LOG][Proc: 0]p_local_coeffs: call_update: 0 [ms]
[OGL LOG][Proc: 0]p_non_local_coeffs: call_update: 0 [ms]
[OGL LOG][Proc: 0]p: update_local_matrix_data: 504.931 [ms]
[OGL LOG][Proc: 0]p: update_non_local_matrix_data: 34.316 [ms]
[OGL LOG][Proc: 0]p_matrix: call_update: 58.06 [ms]
[OGL LOG][Proc: 0]p_rhs: call_update: 22.681 [ms]
[OGL LOG][Proc: 0]p: init_precond: 0.04 [ms]
[OGL LOG][StoppingCriterion.H:372] Creating stopping criterion with minIter 1815 frequency 9
[OGL LOG][Proc: 0]p: generate_solver: 0.019 [ms]
[OGL LOG][Proc: 0]p: solve: 18292.7 [ms]
[OGL LOG][Proc: 0]p: copy_x_back: 36.145 [ms]
[OGL LOG][lduLduBase.H:319] 
Statistics:
	Time per iteration: 5941 [mu s]
	Time per residual norm calculation: 446.000000 [mu s]
	Time per iteration and DOF: 0.092828 [ns]
	Retrieve results bandwith 1.770000 [GByte/s]
[OGL LOG][Proc: 0]p: solve_multi_gpu: 18410.6 [ms]
nonehipGKOCG:  Solving for p, Initial residual = 0.972603, Final residual = 9.35532e-05, No Iterations 3079
linear solve p 19026.1 [ms]
[INFO] SolveP: 19026.2 [ms]
time step continuity errors : sum local = 3.17589e-08, global = 5.10991e-22, cumulative = 6.68362e-21
[INFO] ContinuityError: 236.088 [ms]
[INFO] CorrectBoundary: 7.46 [ms]
[INFO] PISOStep: 23158.7 [ms]
[INFO] MatrixAssemblyPI: 2280.03 [ms]
[INFO] AdjustPhi: 101.609 [ms]
[INFO] ConstrainPressure: 0.004 [ms]
[INFO] MatrixAssemblyPII: 690.901 [ms]
[OGL LOG][Proc: 0]: global_index_init: 0.037 [ms]
[OGL LOG][Proc: 0]p_local_coeffs: call_update: 0 [ms]
[OGL LOG][Proc: 0]p_non_local_coeffs: call_update: 0 [ms]
[OGL LOG][Proc: 0]p: update_local_matrix_data: 521.404 [ms]
[OGL LOG][Proc: 0]p: update_non_local_matrix_data: 5.281 [ms]
[OGL LOG][Proc: 0]p_matrix: call_update: 61.121 [ms]
[OGL LOG][Proc: 0]p_rhs: call_update: 22.88 [ms]
[OGL LOG][Proc: 0]p: init_precond: 0.03 [ms]
[OGL LOG][StoppingCriterion.H:372] Creating stopping criterion with minIter 1847 frequency 9
[OGL LOG][Proc: 0]p: generate_solver: 0.019 [ms]
[OGL LOG][Proc: 0]p: solve: 18315.8 [ms]
[OGL LOG][Proc: 0]p: copy_x_back: 38.185 [ms]
[OGL LOG][lduLduBase.H:319] 
Statistics:
	Time per iteration: 5966 [mu s]
	Time per residual norm calculation: 421.000000 [mu s]
	Time per iteration and DOF: 0.093219 [ns]
	Retrieve results bandwith 1.676000 [GByte/s]
[OGL LOG][Proc: 0]p: solve_multi_gpu: 18439 [ms]
nonehipGKOCG:  Solving for p, Initial residual = 0.908713, Final residual = 9.69992e-05, No Iterations 3070
linear solve p 19041.8 [ms]
[INFO] SolveP: 19041.9 [ms]
time step continuity errors : sum local = 3.33313e-08, global = 9.62825e-22, cumulative = 7.64645e-21
[INFO] ContinuityError: 213.255 [ms]
[INFO] CorrectBoundary: 4.06 [ms]
[INFO] PISOStep: 23126.2 [ms]
[INFO] TimeStep: 64418.1 [ms]
ExecutionTime = 750.4 s  ClockTime = 755 s

Time = 0.001625

Courant Number mean: 0.0376285 max: 1.14466
[INFO] MatrixAssemblyU: 2092.66 [ms]
DILUPBiCGStab:  Solving for Ux, Initial residual = 0.0541159, Final residual = 0.00361356, No Iterations 5
DILUPBiCGStab:  Solving for Uy, Initial residual = 0.24354, Final residual = 0.0133102, No Iterations 5
DILUPBiCGStab:  Solving for Uz, Initial residual = 0.723585, Final residual = 0.0337733, No Iterations 5
linear solve U 15013.9 [ms]
[INFO] MomentumPredictor: 15801.1 [ms]
[INFO] MatrixAssemblyPI: 2354.14 [ms]
[INFO] AdjustPhi: 105.169 [ms]
[INFO] ConstrainPressure: 0.003 [ms]
[INFO] MatrixAssemblyPII: 687.221 [ms]
[OGL LOG][Proc: 0]: global_index_init: 0.023 [ms]
[OGL LOG][Proc: 0]p_local_coeffs: call_update: 0 [ms]
[OGL LOG][Proc: 0]p_non_local_coeffs: call_update: 0 [ms]
[OGL LOG][Proc: 0]p: update_local_matrix_data: 519.393 [ms]
[OGL LOG][Proc: 0]p: update_non_local_matrix_data: 16.598 [ms]
[OGL LOG][Proc: 0]p_matrix: call_update: 62.046 [ms]
[OGL LOG][Proc: 0]p_rhs: call_update: 26.655 [ms]
[OGL LOG][Proc: 0]p: init_precond: 0.039 [ms]
[OGL LOG][StoppingCriterion.H:372] Creating stopping criterion with minIter 1842 frequency 9
[OGL LOG][Proc: 0]p: generate_solver: 0.022 [ms]
[OGL LOG][Proc: 0]p: solve: 18317.2 [ms]
[OGL LOG][Proc: 0]p: copy_x_back: 39.874 [ms]
[OGL LOG][lduLduBase.H:319] 
Statistics:
	Time per iteration: 5949 [mu s]
	Time per residual norm calculation: 415.000000 [mu s]
	Time per iteration and DOF: 0.092953 [ns]
	Retrieve results bandwith 1.605000 [GByte/s]
[OGL LOG][Proc: 0]p: solve_multi_gpu: 18446.8 [ms]
nonehipGKOCG:  Solving for p, Initial residual = 0.976286, Final residual = 9.52161e-05, No Iterations 3079
linear solve p 19061.2 [ms]
[INFO] SolveP: 19061.2 [ms]
time step continuity errors : sum local = 3.7953e-08, global = 4.77568e-23, cumulative = 7.6942e-21
[INFO] ContinuityError: 224.864 [ms]
[INFO] CorrectBoundary: 50.137 [ms]
[INFO] PISOStep: 23225.2 [ms]
[INFO] MatrixAssemblyPI: 2275.8 [ms]
[INFO] AdjustPhi: 95.485 [ms]
[INFO] ConstrainPressure: 0.004 [ms]
[INFO] MatrixAssemblyPII: 692.687 [ms]
[OGL LOG][Proc: 0]: global_index_init: 0.115 [ms]
[OGL LOG][Proc: 0]p_local_coeffs: call_update: 0 [ms]
[OGL LOG][Proc: 0]p_non_local_coeffs: call_update: 0 [ms]
[OGL LOG][Proc: 0]p: update_local_matrix_data: 498.748 [ms]
[OGL LOG][Proc: 0]p: update_non_local_matrix_data: 5.354 [ms]
[OGL LOG][Proc: 0]p_matrix: call_update: 63.533 [ms]
[OGL LOG][Proc: 0]p_rhs: call_update: 34.105 [ms]
[OGL LOG][Proc: 0]p: init_precond: 0.035 [ms]
[OGL LOG][StoppingCriterion.H:372] Creating stopping criterion with minIter 1847 frequency 9
[OGL LOG][Proc: 0]p: generate_solver: 0.024 [ms]
[OGL LOG][Proc: 0]p: solve: 18275.1 [ms]
[OGL LOG][Proc: 0]p: copy_x_back: 38.397 [ms]
[OGL LOG][lduLduBase.H:319] 
Statistics:
	Time per iteration: 5952 [mu s]
	Time per residual norm calculation: 427.000000 [mu s]
	Time per iteration and DOF: 0.093000 [ns]
	Retrieve results bandwith 1.666000 [GByte/s]
[OGL LOG][Proc: 0]p: solve_multi_gpu: 18412.2 [ms]
nonehipGKOCG:  Solving for p, Initial residual = 0.920471, Final residual = 9.62796e-05, No Iterations 3070
linear solve p 18996.5 [ms]
[INFO] SolveP: 18996.6 [ms]
time step continuity errors : sum local = 3.84728e-08, global = 3.07052e-22, cumulative = 8.00126e-21
[INFO] ContinuityError: 199.578 [ms]
[INFO] CorrectBoundary: 2.381 [ms]
[INFO] PISOStep: 23077.5 [ms]
[INFO] TimeStep: 64429.9 [ms]
ExecutionTime = 814.49 s  ClockTime = 820 s

Time = 0.00175

Courant Number mean: 0.0386964 max: 1.02162
[INFO] MatrixAssemblyU: 2096.22 [ms]
DILUPBiCGStab:  Solving for Ux, Initial residual = 0.0623133, Final residual = 0.00390818, No Iterations 5
DILUPBiCGStab:  Solving for Uy, Initial residual = 0.25429, Final residual = 0.0127548, No Iterations 5
DILUPBiCGStab:  Solving for Uz, Initial residual = 0.728312, Final residual = 0.0335157, No Iterations 5
linear solve U 14996.9 [ms]
[INFO] MomentumPredictor: 15781.6 [ms]
[INFO] MatrixAssemblyPI: 2320.45 [ms]
[INFO] AdjustPhi: 121.686 [ms]
[INFO] ConstrainPressure: 0.003 [ms]
[INFO] MatrixAssemblyPII: 691.988 [ms]
[OGL LOG][Proc: 0]: global_index_init: 0.164 [ms]
[OGL LOG][Proc: 0]p_local_coeffs: call_update: 0 [ms]
[OGL LOG][Proc: 0]p_non_local_coeffs: call_update: 0 [ms]
[OGL LOG][Proc: 0]p: update_local_matrix_data: 514.648 [ms]
[OGL LOG][Proc: 0]p: update_non_local_matrix_data: 39.766 [ms]
[OGL LOG][Proc: 0]p_matrix: call_update: 56.829 [ms]
[OGL LOG][Proc: 0]p_rhs: call_update: 22.733 [ms]
[OGL LOG][Proc: 0]p: init_precond: 0.029 [ms]
[OGL LOG][StoppingCriterion.H:372] Creating stopping criterion with minIter 1842 frequency 9
[OGL LOG][Proc: 0]p: generate_solver: 0.017 [ms]
[OGL LOG][Proc: 0]p: solve: 18342.6 [ms]
[OGL LOG][Proc: 0]p: copy_x_back: 38.509 [ms]
[OGL LOG][lduLduBase.H:319] 
Statistics:
	Time per iteration: 5957 [mu s]
	Time per residual norm calculation: 419.000000 [mu s]
	Time per iteration and DOF: 0.093078 [ns]
	Retrieve results bandwith 1.661000 [GByte/s]
[OGL LOG][Proc: 0]p: solve_multi_gpu: 18461.7 [ms]
nonehipGKOCG:  Solving for p, Initial residual = 0.976924, Final residual = 9.8153e-05, No Iterations 3079
linear solve p 19092.9 [ms]
[INFO] SolveP: 19093 [ms]
time step continuity errors : sum local = 4.62034e-08, global = 1.04543e-21, cumulative = 9.04668e-21
[INFO] ContinuityError: 211.867 [ms]
[INFO] CorrectBoundary: 3.725 [ms]
[INFO] PISOStep: 23235.1 [ms]
[INFO] MatrixAssemblyPI: 2271.52 [ms]
[INFO] AdjustPhi: 110.263 [ms]
[INFO] ConstrainPressure: 0.004 [ms]
[INFO] MatrixAssemblyPII: 684.027 [ms]
[OGL LOG][Proc: 0]: global_index_init: 0.578 [ms]
[OGL LOG][Proc: 0]p_local_coeffs: call_update: 0 [ms]
[OGL LOG][Proc: 0]p_non_local_coeffs: call_update: 0 [ms]
[OGL LOG][Proc: 0]p: update_local_matrix_data: 510.31 [ms]
[OGL LOG][Proc: 0]p: update_non_local_matrix_data: 23.996 [ms]
[OGL LOG][Proc: 0]p_matrix: call_update: 52.437 [ms]
[OGL LOG][Proc: 0]p_rhs: call_update: 35.78 [ms]
[OGL LOG][Proc: 0]p: init_precond: 0.036 [ms]
[OGL LOG][StoppingCriterion.H:372] Creating stopping criterion with minIter 1847 frequency 9
[OGL LOG][Proc: 0]p: generate_solver: 0.023 [ms]
[OGL LOG][Proc: 0]p: solve: 18283 [ms]
[OGL LOG][Proc: 0]p: copy_x_back: 39.253 [ms]
[OGL LOG][lduLduBase.H:319] 
Statistics:
	Time per iteration: 5955 [mu s]
	Time per residual norm calculation: 418.000000 [mu s]
	Time per iteration and DOF: 0.093047 [ns]
	Retrieve results bandwith 1.630000 [GByte/s]
[OGL LOG][Proc: 0]p: solve_multi_gpu: 18411.4 [ms]
nonehipGKOCG:  Solving for p, Initial residual = 0.912825, Final residual = 9.90542e-05, No Iterations 3070
linear solve p 19019.1 [ms]
[INFO] SolveP: 19019.2 [ms]
time step continuity errors : sum local = 4.71466e-08, global = 8.04381e-22, cumulative = 9.85106e-21
[INFO] ContinuityError: 235.471 [ms]
[INFO] CorrectBoundary: 21.864 [ms]
[INFO] PISOStep: 23092.6 [ms]
[INFO] TimeStep: 64440.3 [ms]
ExecutionTime = 878.61 s  ClockTime = 884 s

Time = 0.001875

Courant Number mean: 0.0401851 max: 1.68522
[INFO] MatrixAssemblyU: 2081.59 [ms]
DILUPBiCGStab:  Solving for Ux, Initial residual = 0.0694768, Final residual = 0.00400659, No Iterations 5
DILUPBiCGStab:  Solving for Uy, Initial residual = 0.286976, Final residual = 0.0141107, No Iterations 5
DILUPBiCGStab:  Solving for Uz, Initial residual = 0.737769, Final residual = 0.0334128, No Iterations 5
linear solve U 15010.8 [ms]
[INFO] MomentumPredictor: 15811.8 [ms]
[INFO] MatrixAssemblyPI: 2335.3 [ms]
[INFO] AdjustPhi: 93.762 [ms]
[INFO] ConstrainPressure: 0.003 [ms]
[INFO] MatrixAssemblyPII: 689.594 [ms]
[OGL LOG][Proc: 0]: global_index_init: 0.042 [ms]
[OGL LOG][Proc: 0]p_local_coeffs: call_update: 0 [ms]
[OGL LOG][Proc: 0]p_non_local_coeffs: call_update: 0 [ms]
[OGL LOG][Proc: 0]p: update_local_matrix_data: 499.297 [ms]
[OGL LOG][Proc: 0]p: update_non_local_matrix_data: 35.606 [ms]
[OGL LOG][Proc: 0]p_matrix: call_update: 65.044 [ms]
[OGL LOG][Proc: 0]p_rhs: call_update: 25.128 [ms]
[OGL LOG][Proc: 0]p: init_precond: 0.037 [ms]
[OGL LOG][StoppingCriterion.H:372] Creating stopping criterion with minIter 1842 frequency 9
[OGL LOG][Proc: 0]p: generate_solver: 0.02 [ms]
[OGL LOG][Proc: 0]p: solve: 18305.4 [ms]
[OGL LOG][Proc: 0]p: copy_x_back: 35.712 [ms]
[OGL LOG][lduLduBase.H:319] 
Statistics:
	Time per iteration: 5945 [mu s]
	Time per residual norm calculation: 421.000000 [mu s]
	Time per iteration and DOF: 0.092891 [ns]
	Retrieve results bandwith 1.792000 [GByte/s]
[OGL LOG][Proc: 0]p: solve_multi_gpu: 18432.2 [ms]
nonehipGKOCG:  Solving for p, Initial residual = 0.979102, Final residual = 9.85764e-05, No Iterations 3079
linear solve p 19042.8 [ms]
[INFO] SolveP: 19042.9 [ms]
time step continuity errors : sum local = 5.48366e-08, global = 1.21337e-22, cumulative = 9.9724e-21
[INFO] ContinuityError: 235.055 [ms]
[INFO] CorrectBoundary: 1.605 [ms]
[INFO] PISOStep: 23156.2 [ms]
[INFO] MatrixAssemblyPI: 2281.35 [ms]
[INFO] AdjustPhi: 108.175 [ms]
[INFO] ConstrainPressure: 0.003 [ms]
[INFO] MatrixAssemblyPII: 684.806 [ms]
[OGL LOG][Proc: 0]: global_index_init: 0.516 [ms]
[OGL LOG][Proc: 0]p_local_coeffs: call_update: 0 [ms]
[OGL LOG][Proc: 0]p_non_local_coeffs: call_update: 0 [ms]
[OGL LOG][Proc: 0]p: update_local_matrix_data: 510.366 [ms]
[OGL LOG][Proc: 0]p: update_non_local_matrix_data: 4.328 [ms]
[OGL LOG][Proc: 0]p_matrix: call_update: 56.18 [ms]
[OGL LOG][Proc: 0]p_rhs: call_update: 39.562 [ms]
[OGL LOG][Proc: 0]p: init_precond: 0.034 [ms]
[OGL LOG][StoppingCriterion.H:372] Creating stopping criterion with minIter 1847 frequency 9
[OGL LOG][Proc: 0]p: generate_solver: 0.021 [ms]
[OGL LOG][Proc: 0]p: solve: 18304.9 [ms]
[OGL LOG][Proc: 0]p: copy_x_back: 38.956 [ms]
[OGL LOG][lduLduBase.H:319] 
Statistics:
	Time per iteration: 5962 [mu s]
	Time per residual norm calculation: 419.000000 [mu s]
	Time per iteration and DOF: 0.093156 [ns]
	Retrieve results bandwith 1.642000 [GByte/s]
[OGL LOG][Proc: 0]p: solve_multi_gpu: 18440.7 [ms]
nonehipGKOCG:  Solving for p, Initial residual = 0.920965, Final residual = 9.99787e-05, No Iterations 3070
linear solve p 19032.4 [ms]
[INFO] SolveP: 19032.5 [ms]
time step continuity errors : sum local = 5.58405e-08, global = 2.64943e-22, cumulative = 1.02373e-20
[INFO] ContinuityError: 211.459 [ms]
[INFO] CorrectBoundary: 5.547 [ms]
[INFO] PISOStep: 23124.3 [ms]
[INFO] TimeStep: 64409.1 [ms]
ExecutionTime = 942.66 s  ClockTime = 949 s

Time = 0.002

Courant Number mean: 0.0411856 max: 1.72707
[INFO] MatrixAssemblyU: 2093.31 [ms]
DILUPBiCGStab:  Solving for Ux, Initial residual = 0.0812534, Final residual = 0.00442125, No Iterations 5
DILUPBiCGStab:  Solving for Uy, Initial residual = 0.304181, Final residual = 0.014, No Iterations 5
DILUPBiCGStab:  Solving for Uz, Initial residual = 0.741601, Final residual = 0.0332244, No Iterations 5
linear solve U 15005.9 [ms]
[INFO] MomentumPredictor: 15792.8 [ms]
[INFO] MatrixAssemblyPI: 2349.26 [ms]
[INFO] AdjustPhi: 94.312 [ms]
[INFO] ConstrainPressure: 0.003 [ms]
[INFO] MatrixAssemblyPII: 689.175 [ms]
[OGL LOG][Proc: 0]: global_index_init: 0.096 [ms]
[OGL LOG][Proc: 0]p_local_coeffs: call_update: 0 [ms]
[OGL LOG][Proc: 0]p_non_local_coeffs: call_update: 0 [ms]
[OGL LOG][Proc: 0]p: update_local_matrix_data: 519.702 [ms]
[OGL LOG][Proc: 0]p: update_non_local_matrix_data: 20.8 [ms]
[OGL LOG][Proc: 0]p_matrix: call_update: 63.764 [ms]
[OGL LOG][Proc: 0]p_rhs: call_update: 20.866 [ms]
[OGL LOG][Proc: 0]p: init_precond: 0.032 [ms]
[OGL LOG][StoppingCriterion.H:372] Creating stopping criterion with minIter 1842 frequency 9
[OGL LOG][Proc: 0]p: generate_solver: 0.021 [ms]
[OGL LOG][Proc: 0]p: solve: 18388 [ms]
[OGL LOG][Proc: 0]p: copy_x_back: 35.031 [ms]
[OGL LOG][lduLduBase.H:319] 
Statistics:
	Time per iteration: 5954 [mu s]
	Time per residual norm calculation: 415.000000 [mu s]
	Time per iteration and DOF: 0.093031 [ns]
	Retrieve results bandwith 1.826000 [GByte/s]
[OGL LOG][Proc: 0]p: solve_multi_gpu: 18508.8 [ms]
nonehipGKOCG:  Solving for p, Initial residual = 0.980227, Final residual = 8.66388e-05, No Iterations 3088
linear solve p 19136.9 [ms]
[INFO] SolveP: 19136.9 [ms]
time step continuity errors : sum local = 5.71837e-08, global = 6.5156e-22, cumulative = 1.08889e-20
[INFO] ContinuityError: 254.756 [ms]
[INFO] CorrectBoundary: 33.682 [ms]
[INFO] PISOStep: 23289.7 [ms]
[INFO] MatrixAssemblyPI: 2286.23 [ms]
[INFO] AdjustPhi: 96.192 [ms]
[INFO] ConstrainPressure: 0.004 [ms]
[INFO] MatrixAssemblyPII: 690.146 [ms]
[OGL LOG][Proc: 0]: global_index_init: 0.025 [ms]
[OGL LOG][Proc: 0]p_local_coeffs: call_update: 0 [ms]
[OGL LOG][Proc: 0]p_non_local_coeffs: call_update: 0 [ms]
[OGL LOG][Proc: 0]p: update_local_matrix_data: 497.118 [ms]
[OGL LOG][Proc: 0]p: update_non_local_matrix_data: 60.423 [ms]
[OGL LOG][Proc: 0]p_matrix: call_update: 59.803 [ms]
[OGL LOG][Proc: 0]p_rhs: call_update: 24.66 [ms]
[OGL LOG][Proc: 0]p: init_precond: 0.037 [ms]
[OGL LOG][StoppingCriterion.H:372] Creating stopping criterion with minIter 1852 frequency 9
[OGL LOG][Proc: 0]p: generate_solver: 0.02 [ms]
[OGL LOG][Proc: 0]p: solve: 18282.8 [ms]
[OGL LOG][Proc: 0]p: copy_x_back: 39.504 [ms]
[OGL LOG][lduLduBase.H:319] 
Statistics:
	Time per iteration: 5937 [mu s]
	Time per residual norm calculation: 415.000000 [mu s]
	Time per iteration and DOF: 0.092766 [ns]
	Retrieve results bandwith 1.620000 [GByte/s]
[OGL LOG][Proc: 0]p: solve_multi_gpu: 18407.7 [ms]
nonehipGKOCG:  Solving for p, Initial residual = 0.915941, Final residual = 9.39282e-05, No Iterations 3079
linear solve p 19044.9 [ms]
[INFO] SolveP: 19045 [ms]
time step continuity errors : sum local = 6.26323e-08, global = 7.10677e-22, cumulative = 1.15996e-20
[INFO] ContinuityError: 198.568 [ms]
[INFO] CorrectBoundary: 2.773 [ms]
[INFO] PISOStep: 23122.7 [ms]
[INFO] TimeStep: 64531.7 [ms]
ExecutionTime = 1006.86 s  ClockTime = 1013 s

Time = 0.002125

Courant Number mean: 0.0427172 max: 2.56728
[INFO] MatrixAssemblyU: 2092.36 [ms]
DILUPBiCGStab:  Solving for Ux, Initial residual = 0.0915214, Final residual = 0.00468583, No Iterations 5
DILUPBiCGStab:  Solving for Uy, Initial residual = 0.33992, Final residual = 0.0154186, No Iterations 5
DILUPBiCGStab:  Solving for Uz, Initial residual = 0.747518, Final residual = 0.0330637, No Iterations 5
linear solve U 15016.4 [ms]
[INFO] MomentumPredictor: 15805.3 [ms]
[INFO] MatrixAssemblyPI: 2349.49 [ms]
[INFO] AdjustPhi: 94.239 [ms]
[INFO] ConstrainPressure: 0.004 [ms]
[INFO] MatrixAssemblyPII: 687.811 [ms]
[OGL LOG][Proc: 0]: global_index_init: 0.045 [ms]
[OGL LOG][Proc: 0]p_local_coeffs: call_update: 0 [ms]
[OGL LOG][Proc: 0]p_non_local_coeffs: call_update: 0 [ms]
[OGL LOG][Proc: 0]p: update_local_matrix_data: 523.958 [ms]
[OGL LOG][Proc: 0]p: update_non_local_matrix_data: 18.454 [ms]
[OGL LOG][Proc: 0]p_matrix: call_update: 61.633 [ms]
[OGL LOG][Proc: 0]p_rhs: call_update: 22.569 [ms]
[OGL LOG][Proc: 0]p: init_precond: 0.028 [ms]
[OGL LOG][StoppingCriterion.H:372] Creating stopping criterion with minIter 1847 frequency 9
[OGL LOG][Proc: 0]p: generate_solver: 0.017 [ms]
[OGL LOG][Proc: 0]p: solve: 18389.7 [ms]
[OGL LOG][Proc: 0]p: copy_x_back: 38.137 [ms]
[OGL LOG][lduLduBase.H:319] 
Statistics:
	Time per iteration: 5955 [mu s]
	Time per residual norm calculation: 427.000000 [mu s]
	Time per iteration and DOF: 0.093047 [ns]
	Retrieve results bandwith 1.678000 [GByte/s]
[OGL LOG][Proc: 0]p: solve_multi_gpu: 18513 [ms]
nonehipGKOCG:  Solving for p, Initial residual = 0.981274, Final residual = 9.27587e-05, No Iterations 3088
linear solve p 19135 [ms]
[INFO] SolveP: 19135.1 [ms]
time step continuity errors : sum local = 7.29185e-08, global = -2.4743e-22, cumulative = 1.13522e-20
[INFO] ContinuityError: 185.995 [ms]
[INFO] CorrectBoundary: 3.347 [ms]
[INFO] PISOStep: 23290.8 [ms]
[INFO] MatrixAssemblyPI: 2255.73 [ms]
[INFO] AdjustPhi: 96.281 [ms]
[INFO] ConstrainPressure: 0.004 [ms]
[INFO] MatrixAssemblyPII: 689.49 [ms]
[OGL LOG][Proc: 0]: global_index_init: 0.039 [ms]
[OGL LOG][Proc: 0]p_local_coeffs: call_update: 0 [ms]
[OGL LOG][Proc: 0]p_non_local_coeffs: call_update: 0 [ms]
[OGL LOG][Proc: 0]p: update_local_matrix_data: 520.491 [ms]
[OGL LOG][Proc: 0]p: update_non_local_matrix_data: 5.151 [ms]
[OGL LOG][Proc: 0]p_matrix: call_update: 62.237 [ms]
[OGL LOG][Proc: 0]p_rhs: call_update: 32.653 [ms]
[OGL LOG][Proc: 0]p: init_precond: 0.031 [ms]
[OGL LOG][StoppingCriterion.H:372] Creating stopping criterion with minIter 1852 frequency 9
[OGL LOG][Proc: 0]p: generate_solver: 0.02 [ms]
[OGL LOG][Proc: 0]p: solve: 18330.9 [ms]
[OGL LOG][Proc: 0]p: copy_x_back: 38.532 [ms]
[OGL LOG][lduLduBase.H:319] 
Statistics:
	Time per iteration: 5953 [mu s]
	Time per residual norm calculation: 421.000000 [mu s]
	Time per iteration and DOF: 0.093016 [ns]
	Retrieve results bandwith 1.660000 [GByte/s]
[OGL LOG][Proc: 0]p: solve_multi_gpu: 18465.5 [ms]
nonehipGKOCG:  Solving for p, Initial residual = 0.920984, Final residual = 9.82874e-05, No Iterations 3079
linear solve p 19070.7 [ms]
[INFO] SolveP: 19070.8 [ms]
time step continuity errors : sum local = 7.76856e-08, global = 3.57833e-22, cumulative = 1.171e-20
[INFO] ContinuityError: 273.004 [ms]
[INFO] CorrectBoundary: 39.222 [ms]
[INFO] PISOStep: 23133.6 [ms]
[INFO] TimeStep: 64557.1 [ms]
ExecutionTime = 1071.04 s  ClockTime = 1078 s

Time = 0.00225

Courant Number mean: 0.043734 max: 2.88651
[INFO] MatrixAssemblyU: 2090.29 [ms]
DILUPBiCGStab:  Solving for Ux, Initial residual = 0.108442, Final residual = 0.00529148, No Iterations 5
DILUPBiCGStab:  Solving for Uy, Initial residual = 0.36339, Final residual = 0.0156927, No Iterations 5
DILUPBiCGStab:  Solving for Uz, Initial residual = 0.750124, Final residual = 0.0328625, No Iterations 5
linear solve U 15028.5 [ms]
[INFO] MomentumPredictor: 15821.1 [ms]
[INFO] MatrixAssemblyPI: 2342.26 [ms]
[INFO] AdjustPhi: 94.105 [ms]
[INFO] ConstrainPressure: 0.003 [ms]
[INFO] MatrixAssemblyPII: 689.448 [ms]
[OGL LOG][Proc: 0]: global_index_init: 0.09 [ms]
[OGL LOG][Proc: 0]p_local_coeffs: call_update: 0 [ms]
[OGL LOG][Proc: 0]p_non_local_coeffs: call_update: 0 [ms]
[OGL LOG][Proc: 0]p: update_local_matrix_data: 520.365 [ms]
[OGL LOG][Proc: 0]p: update_non_local_matrix_data: 21.179 [ms]
[OGL LOG][Proc: 0]p_matrix: call_update: 63.875 [ms]
[OGL LOG][Proc: 0]p_rhs: call_update: 25.665 [ms]
[OGL LOG][Proc: 0]p: init_precond: 0.039 [ms]
[OGL LOG][StoppingCriterion.H:372] Creating stopping criterion with minIter 1847 frequency 9
[OGL LOG][Proc: 0]p: generate_solver: 0.02 [ms]
[OGL LOG][Proc: 0]p: solve: 18350.9 [ms]
[OGL LOG][Proc: 0]p: copy_x_back: 37.481 [ms]
[OGL LOG][lduLduBase.H:319] 
Statistics:
	Time per iteration: 5942 [mu s]
	Time per residual norm calculation: 434.000000 [mu s]
	Time per iteration and DOF: 0.092844 [ns]
	Retrieve results bandwith 1.707000 [GByte/s]
[OGL LOG][Proc: 0]p: solve_multi_gpu: 18478.9 [ms]
nonehipGKOCG:  Solving for p, Initial residual = 0.982522, Final residual = 9.4052e-05, No Iterations 3088
linear solve p 19094.7 [ms]
[INFO] SolveP: 19094.8 [ms]
time step continuity errors : sum local = 8.84187e-08, global = 1.17992e-21, cumulative = 1.28899e-20
[INFO] ContinuityError: 236.867 [ms]
[INFO] CorrectBoundary: 4.098 [ms]
[INFO] PISOStep: 23215.7 [ms]
[INFO] MatrixAssemblyPI: 2247.53 [ms]
[INFO] AdjustPhi: 139.663 [ms]
[INFO] ConstrainPressure: 0.003 [ms]
[INFO] MatrixAssemblyPII: 689.467 [ms]
[OGL LOG][Proc: 0]: global_index_init: 0.311 [ms]
[OGL LOG][Proc: 0]p_local_coeffs: call_update: 0 [ms]
[OGL LOG][Proc: 0]p_non_local_coeffs: call_update: 0 [ms]
[OGL LOG][Proc: 0]p: update_local_matrix_data: 492.088 [ms]
[OGL LOG][Proc: 0]p: update_non_local_matrix_data: 4.481 [ms]
[OGL LOG][Proc: 0]p_matrix: call_update: 53.776 [ms]
[OGL LOG][Proc: 0]p_rhs: call_update: 52.476 [ms]
[OGL LOG][Proc: 0]p: init_precond: 0.031 [ms]
[OGL LOG][StoppingCriterion.H:372] Creating stopping criterion with minIter 1852 frequency 9
[OGL LOG][Proc: 0]p: generate_solver: 0.022 [ms]
[OGL LOG][Proc: 0]p: solve: 18405.8 [ms]
[OGL LOG][Proc: 0]p: copy_x_back: 39.553 [ms]
[OGL LOG][lduLduBase.H:319] 
Statistics:
	Time per iteration: 5960 [mu s]
	Time per residual norm calculation: 415.000000 [mu s]
	Time per iteration and DOF: 0.093125 [ns]
	Retrieve results bandwith 1.618000 [GByte/s]
[OGL LOG][Proc: 0]p: solve_multi_gpu: 18552.9 [ms]
nonehipGKOCG:  Solving for p, Initial residual = 0.918053, Final residual = 8.81557e-05, No Iterations 3088
linear solve p 19128.2 [ms]
[INFO] SolveP: 19128.3 [ms]
time step continuity errors : sum local = 8.36828e-08, global = -9.56686e-23, cumulative = 1.27942e-20
[INFO] ContinuityError: 211.378 [ms]
[INFO] CorrectBoundary: 3.828 [ms]
[INFO] PISOStep: 23217.5 [ms]
[INFO] TimeStep: 64578.8 [ms]
ExecutionTime = 1135.26 s  ClockTime = 1142 s

Time = 0.002375

Courant Number mean: 0.0453954 max: 4.00862
[INFO] MatrixAssemblyU: 2092.42 [ms]
DILUPBiCGStab:  Solving for Ux, Initial residual = 0.122704, Final residual = 0.00573981, No Iterations 5
DILUPBiCGStab:  Solving for Uy, Initial residual = 0.400405, Final residual = 0.0171553, No Iterations 5
DILUPBiCGStab:  Solving for Uz, Initial residual = 0.753954, Final residual = 0.0327984, No Iterations 5
linear solve U 15024.2 [ms]
[INFO] MomentumPredictor: 15806.3 [ms]
[INFO] MatrixAssemblyPI: 2339.85 [ms]
[INFO] AdjustPhi: 98.079 [ms]
[INFO] ConstrainPressure: 0.003 [ms]
[INFO] MatrixAssemblyPII: 676.6 [ms]
[OGL LOG][Proc: 0]: global_index_init: 0.146 [ms]
[OGL LOG][Proc: 0]p_local_coeffs: call_update: 0 [ms]
[OGL LOG][Proc: 0]p_non_local_coeffs: call_update: 0 [ms]
[OGL LOG][Proc: 0]p: update_local_matrix_data: 515.349 [ms]
[OGL LOG][Proc: 0]p: update_non_local_matrix_data: 19.119 [ms]
[OGL LOG][Proc: 0]p_matrix: call_update: 59.503 [ms]
[OGL LOG][Proc: 0]p_rhs: call_update: 35.549 [ms]
[OGL LOG][Proc: 0]p: init_precond: 0.038 [ms]
[OGL LOG][StoppingCriterion.H:372] Creating stopping criterion with minIter 1852 frequency 9
[OGL LOG][Proc: 0]p: generate_solver: 0.019 [ms]
[OGL LOG][Proc: 0]p: solve: 18385.4 [ms]
[OGL LOG][Proc: 0]p: copy_x_back: 38.745 [ms]
[OGL LOG][lduLduBase.H:319] 
Statistics:
	Time per iteration: 5953 [mu s]
	Time per residual norm calculation: 421.000000 [mu s]
	Time per iteration and DOF: 0.093016 [ns]
	Retrieve results bandwith 1.651000 [GByte/s]
[OGL LOG][Proc: 0]p: solve_multi_gpu: 18520.5 [ms]
nonehipGKOCG:  Solving for p, Initial residual = 0.982964, Final residual = 9.80076e-05, No Iterations 3088
linear solve p 19134.1 [ms]
[INFO] SolveP: 19134.1 [ms]
time step continuity errors : sum local = 1.10649e-07, global = 1.68745e-22, cumulative = 1.2963e-20
[INFO] ContinuityError: 258.645 [ms]
[INFO] CorrectBoundary: 33.681 [ms]
[INFO] PISOStep: 23279.1 [ms]
[INFO] MatrixAssemblyPI: 2286.95 [ms]
[INFO] AdjustPhi: 93.934 [ms]
[INFO] ConstrainPressure: 0.004 [ms]
[INFO] MatrixAssemblyPII: 687.139 [ms]
[OGL LOG][Proc: 0]: global_index_init: 0.208 [ms]
[OGL LOG][Proc: 0]p_local_coeffs: call_update: 0 [ms]
[OGL LOG][Proc: 0]p_non_local_coeffs: call_update: 0 [ms]
[OGL LOG][Proc: 0]p: update_local_matrix_data: 502.168 [ms]
[OGL LOG][Proc: 0]p: update_non_local_matrix_data: 38.229 [ms]
[OGL LOG][Proc: 0]p_matrix: call_update: 66.386 [ms]
[OGL LOG][Proc: 0]p_rhs: call_update: 23.446 [ms]
[OGL LOG][Proc: 0]p: init_precond: 0.032 [ms]
[OGL LOG][StoppingCriterion.H:372] Creating stopping criterion with minIter 1852 frequency 9
[OGL LOG][Proc: 0]p: generate_solver: 0.02 [ms]
[OGL LOG][Proc: 0]p: solve: 18371.7 [ms]
[OGL LOG][Proc: 0]p: copy_x_back: 40.827 [ms]
[OGL LOG][lduLduBase.H:319] 
Statistics:
	Time per iteration: 5949 [mu s]
	Time per residual norm calculation: 433.000000 [mu s]
	Time per iteration and DOF: 0.092953 [ns]
	Retrieve results bandwith 1.567000 [GByte/s]
[OGL LOG][Proc: 0]p: solve_multi_gpu: 18503.3 [ms]
nonehipGKOCG:  Solving for p, Initial residual = 0.92125, Final residual = 9.51002e-05, No Iterations 3088
linear solve p 19120.3 [ms]
[INFO] SolveP: 19120.4 [ms]
time step continuity errors : sum local = 1.08069e-07, global = -1.55872e-22, cumulative = 1.28071e-20
[INFO] ContinuityError: 197.796 [ms]
[INFO] CorrectBoundary: 2.71 [ms]
[INFO] PISOStep: 23208.4 [ms]
[INFO] TimeStep: 64619.9 [ms]
ExecutionTime = 1199.57 s  ClockTime = 1207 s

Time = 0.0025

Courant Number mean: 0.0465432 max: 4.77587
[INFO] MatrixAssemblyU: 2093 [ms]
DILUPBiCGStab:  Solving for Ux, Initial residual = 0.146569, Final residual = 0.00661725, No Iterations 5
DILUPBiCGStab:  Solving for Uy, Initial residual = 0.428447, Final residual = 0.0177399, No Iterations 5
DILUPBiCGStab:  Solving for Uz, Initial residual = 0.755456, Final residual = 0.0325897, No Iterations 5
linear solve U 15027.8 [ms]
[INFO] MomentumPredictor: 15812.5 [ms]
[INFO] MatrixAssemblyPI: 2347.54 [ms]
[INFO] AdjustPhi: 93.998 [ms]
[INFO] ConstrainPressure: 0.004 [ms]
[INFO] MatrixAssemblyPII: 687.165 [ms]
[OGL LOG][Proc: 0]: global_index_init: 0.031 [ms]
[OGL LOG][Proc: 0]p_local_coeffs: call_update: 0 [ms]
[OGL LOG][Proc: 0]p_non_local_coeffs: call_update: 0 [ms]
[OGL LOG][Proc: 0]p: update_local_matrix_data: 521.432 [ms]
[OGL LOG][Proc: 0]p: update_non_local_matrix_data: 17.677 [ms]
[OGL LOG][Proc: 0]p_matrix: call_update: 57.058 [ms]
[OGL LOG][Proc: 0]p_rhs: call_update: 22.888 [ms]
[OGL LOG][Proc: 0]p: init_precond: 0.028 [ms]
[OGL LOG][StoppingCriterion.H:372] Creating stopping criterion with minIter 1852 frequency 9
[OGL LOG][Proc: 0]p: generate_solver: 0.018 [ms]
[OGL LOG][Proc: 0]p: solve: 18361.4 [ms]
[OGL LOG][Proc: 0]p: copy_x_back: 37.403 [ms]
[OGL LOG][lduLduBase.H:319] 
Statistics:
	Time per iteration: 5946 [mu s]
	Time per residual norm calculation: 433.000000 [mu s]
	Time per iteration and DOF: 0.092906 [ns]
	Retrieve results bandwith 1.711000 [GByte/s]
[OGL LOG][Proc: 0]p: solve_multi_gpu: 18479.7 [ms]
nonehipGKOCG:  Solving for p, Initial residual = 0.983885, Final residual = 9.67987e-05, No Iterations 3088
linear solve p 19099.9 [ms]
[INFO] SolveP: 19100 [ms]
time step continuity errors : sum local = 1.31658e-07, global = 1.38041e-21, cumulative = 1.41875e-20
[INFO] ContinuityError: 195.665 [ms]
[INFO] CorrectBoundary: 3.446 [ms]
[INFO] PISOStep: 23245.7 [ms]
[INFO] MatrixAssemblyPI: 2260.48 [ms]
[INFO] AdjustPhi: 106.655 [ms]
[INFO] ConstrainPressure: 0.003 [ms]
[INFO] MatrixAssemblyPII: 691.719 [ms]
[OGL LOG][Proc: 0]: global_index_init: 0.149 [ms]
[OGL LOG][Proc: 0]p_local_coeffs: call_update: 0 [ms]
[OGL LOG][Proc: 0]p_non_local_coeffs: call_update: 0 [ms]
[OGL LOG][Proc: 0]p: update_local_matrix_data: 521.573 [ms]
[OGL LOG][Proc: 0]p: update_non_local_matrix_data: 5.732 [ms]
[OGL LOG][Proc: 0]p_matrix: call_update: 63.085 [ms]
[OGL LOG][Proc: 0]p_rhs: call_update: 23.02 [ms]
[OGL LOG][Proc: 0]p: init_precond: 0.032 [ms]
[OGL LOG][StoppingCriterion.H:372] Creating stopping criterion with minIter 1852 frequency 9
[OGL LOG][Proc: 0]p: generate_solver: 0.019 [ms]
[OGL LOG][Proc: 0]p: solve: 18374.9 [ms]
[OGL LOG][Proc: 0]p: copy_x_back: 37.391 [ms]
[OGL LOG][lduLduBase.H:319] 
Statistics:
	Time per iteration: 5950 [mu s]
	Time per residual norm calculation: 421.000000 [mu s]
	Time per iteration and DOF: 0.092969 [ns]
	Retrieve results bandwith 1.711000 [GByte/s]
[OGL LOG][Proc: 0]p: solve_multi_gpu: 18499.7 [ms]
nonehipGKOCG:  Solving for p, Initial residual = 0.919414, Final residual = 9.51332e-05, No Iterations 3088
linear solve p 19109.5 [ms]
[INFO] SolveP: 19109.5 [ms]
time step continuity errors : sum local = 1.3062e-07, global = 8.49463e-22, cumulative = 1.5037e-20
[INFO] ContinuityError: 276.877 [ms]
[INFO] CorrectBoundary: 33.225 [ms]
[INFO] PISOStep: 23177.6 [ms]
[INFO] TimeStep: 64562.5 [ms]
ExecutionTime = 1263.75 s  ClockTime = 1272 s

End

Finalising parallel run
