/*---------------------------------------------------------------------------*\
| =========                 |                                                 |
| \\      /  F ield         | OpenFOAM: The Open Source CFD Toolbox           |
|  \\    /   O peration     | Version:  2306                                  |
|   \\  /    A nd           | Website:  www.openfoam.com                      |
|    \\/     M anipulation  |                                                 |
\*---------------------------------------------------------------------------*/
Build  : a6e826bd55-20230630 OPENFOAM=2306 version=v2306
Arch   : "LSB;label=32;scalar=64"
Exec   : simpleFoam -parallel -case /home/greole/data/code/exasim_project/micro_benchmarks/WindsorBody/workspace/e7a9ea6ea775ad38e56df5a4625cfc22/case
Date   : Aug 11 2023
Time   : 20:49:43
Host   : nla-gpu2.ianm.kit.edu
PID    : 2482019
I/O    : uncollated
Case   : /home/greole/data/code/exasim_project/micro_benchmarks/WindsorBody/workspace/e7a9ea6ea775ad38e56df5a4625cfc22/case
nProcs : 16
Hosts  :
(
    (nla-gpu2.ianm.kit.edu 16)
)
Pstream initialized with:
    floatTransfer      : false
    nProcsSimpleSum    : 0
    nonBlockingExchange: 0 (tuning: 0)
    exchange algorithm : -1
    commsType          : nonBlocking
    polling iterations : 0
trapFpe: Floating point exception trapping enabled (FOAM_SIGFPE).
fileModificationChecking : Monitoring run-time modified files using timeStampMaster (fileModificationSkew 5, maxFileModificationPolls 20)
allowSystemOperations : Allowing user-supplied system call operations

// * * * * * * * * * * * * * * * * * * * * * * * * * * * * * * * * * * * * * //
Create time

--> FOAM Warning : 
    From void* Foam::dlLibraryTable::openLibrary(const Foam::fileName&, bool)
    in file db/dynamicLibrary/dlLibraryTable/dlLibraryTable.C at line 188
    Could not load "libpetscFoam.so"
libpetscFoam.so: cannot open shared object file: No such file or directory
Create mesh for time = 0


SIMPLE: convergence criteria
    field p	 tolerance 1e-08
    field U	 tolerance 1e-08
    field k	 tolerance 1e-08
    field omega	 tolerance 1e-08
    field nuTilda	 tolerance 1e-08

Reading field p

Reading field U

Reading/calculating face flux field phi

Selecting incompressible transport model Newtonian
Selecting turbulence model type RAS
Selecting RAS turbulence model SpalartAllmaras
Selecting patchDistMethod meshWave
ft2 term: inactive
RAS
{
    RASModel        SpalartAllmaras;
    turbulence      on;
    printCoeffs     on;
    sigmaNut        0.66666;
    kappa           0.41;
    Cb1             0.1355;
    Cb2             0.622;
    Cw2             0.3;
    Cw3             2;
    Cv1             7.1;
    Cs              0.3;
    ck              0.07000000000000001;
    ft2             false;
    Ct3             1.2;
    Ct4             0.5;
}

No MRF models present

Creating finite volume options from "system/fvOptions"

Selecting finite volume options type velocityDampingConstraint
    Source: velocityDamping
    - selecting all cells
    - selected 12614272 cell(s) with volume 55.65166103214618

Starting time loop

--> FOAM Warning : 
    From bool Foam::functionObjectList::read()
    in file db/functionObjects/functionObjectList/functionObjectList.C at line 1035
    Reading "system/controlDict" at line 2 to 41
    Entry 'lref' is not a dictionary
--> FOAM Warning : 
    From bool Foam::functionObjectList::read()
    in file db/functionObjects/functionObjectList/functionObjectList.C at line 1035
    Reading "system/controlDict" at line 2 to 41
    Entry 'Aref' is not a dictionary
--> FOAM Warning : 
    From bool Foam::functionObjectList::read()
    in file db/functionObjects/functionObjectList/functionObjectList.C at line 1035
    Reading "system/controlDict" at line 2 to 41
    Entry 'yawAngle' is not a dictionary
--> FOAM Warning : 
    From bool Foam::functionObjectList::read()
    in file db/functionObjects/functionObjectList/functionObjectList.C at line 1035
    Reading "system/controlDict" at line 2 to 41
    Entry 'lDomain' is not a dictionary
--> FOAM Warning : 
    From bool Foam::functionObjectList::read()
    in file db/functionObjects/functionObjectList/functionObjectList.C at line 1035
    Reading "system/controlDict" at line 2 to 41
    Entry 'bDomain' is not a dictionary
--> FOAM Warning : 
    From bool Foam::functionObjectList::read()
    in file db/functionObjects/functionObjectList/functionObjectList.C at line 1035
    Reading "system/controlDict" at line 2 to 41
    Entry 'hDomain' is not a dictionary
--> FOAM Warning : 
    From bool Foam::functionObjectList::read()
    in file db/functionObjects/functionObjectList/functionObjectList.C at line 1035
    Reading "system/controlDict" at line 2 to 41
    Entry 'xCenter' is not a dictionary
--> FOAM Warning : 
    From bool Foam::functionObjectList::read()
    in file db/functionObjects/functionObjectList/functionObjectList.C at line 1035
    Reading "system/controlDict" at line 2 to 41
    Entry 'yCenter' is not a dictionary
--> FOAM Warning : 
    From bool Foam::functionObjectList::read()
    in file db/functionObjects/functionObjectList/functionObjectList.C at line 1035
    Reading "system/controlDict" at line 2 to 41
    Entry 'zCenter' is not a dictionary
--> FOAM Warning : 
    From bool Foam::functionObjectList::read()
    in file db/functionObjects/functionObjectList/functionObjectList.C at line 1035
    Reading "system/controlDict" at line 2 to 41
    Entry 'inletPatch' is not a dictionary
--> FOAM Warning : 
    From bool Foam::functionObjectList::read()
    in file db/functionObjects/functionObjectList/functionObjectList.C at line 1035
    Reading "system/controlDict" at line 2 to 41
    Entry 'outletPatch' is not a dictionary
--> FOAM Warning : 
    From bool Foam::functionObjectList::read()
    in file db/functionObjects/functionObjectList/functionObjectList.C at line 1035
    Reading "system/controlDict" at line 2 to 41
    Entry 'wallPatches' is not a dictionary
--> FOAM Warning : 
    From bool Foam::functionObjectList::read()
    in file db/functionObjects/functionObjectList/functionObjectList.C at line 1035
    Reading "system/controlDict" at line 2 to 41
    Entry 'forcesWallPatches' is not a dictionary
--> FOAM Warning : 
    From bool Foam::functionObjectList::read()
    in file db/functionObjects/functionObjectList/functionObjectList.C at line 1035
    Reading "system/controlDict" at line 2 to 41
    Entry 'symmPatches' is not a dictionary
--> FOAM Warning : 
    From bool Foam::functionObjectList::read()
    in file db/functionObjects/functionObjectList/functionObjectList.C at line 1035
    Reading "system/controlDict" at line 2 to 41
    Entry 'Uinf' is not a dictionary
--> FOAM Warning : 
    From bool Foam::functionObjectList::read()
    in file db/functionObjects/functionObjectList/functionObjectList.C at line 1035
    Reading "system/controlDict" at line 2 to 41
    Entry 'UinfMag' is not a dictionary
--> FOAM Warning : 
    From bool Foam::functionObjectList::read()
    in file db/functionObjects/functionObjectList/functionObjectList.C at line 1035
    Reading "system/controlDict" at line 2 to 41
    Entry 'nu' is not a dictionary
--> FOAM Warning : 
    From bool Foam::functionObjectList::read()
    in file db/functionObjects/functionObjectList/functionObjectList.C at line 1035
    Reading "system/controlDict" at line 2 to 41
    Entry 'pref' is not a dictionary
--> FOAM Warning : 
    From bool Foam::functionObjectList::read()
    in file db/functionObjects/functionObjectList/functionObjectList.C at line 1035
    Reading "system/controlDict" at line 2 to 41
    Entry 'viscRatio' is not a dictionary
--> FOAM Warning : 
    From bool Foam::functionObjectList::read()
    in file db/functionObjects/functionObjectList/functionObjectList.C at line 1035
    Reading "system/controlDict" at line 2 to 41
    Entry 'Tu' is not a dictionary
--> FOAM Warning : 
    From bool Foam::functionObjectList::read()
    in file db/functionObjects/functionObjectList/functionObjectList.C at line 1035
    Reading "system/controlDict" at line 2 to 41
    Entry 'LESturbModel' is not a dictionary
--> FOAM Warning : 
    From bool Foam::functionObjectList::read()
    in file db/functionObjects/functionObjectList/functionObjectList.C at line 1035
    Reading "system/controlDict" at line 2 to 41
    Entry 'RASturbModel' is not a dictionary
--> FOAM Warning : 
    From bool Foam::functionObjectList::read()
    in file db/functionObjects/functionObjectList/functionObjectList.C at line 1035
    Reading "system/controlDict" at line 2 to 41
    Entry 'deltaTurb' is not a dictionary
--> FOAM Warning : 
    From bool Foam::functionObjectList::read()
    in file db/functionObjects/functionObjectList/functionObjectList.C at line 1035
    Reading "system/controlDict" at line 2 to 41
    Entry 'dt' is not a dictionary
--> FOAM Warning : 
    From bool Foam::functionObjectList::read()
    in file db/functionObjects/functionObjectList/functionObjectList.C at line 1035
    Reading "system/controlDict" at line 2 to 41
    Entry 'tAvg' is not a dictionary
--> FOAM Warning : 
    From bool Foam::functionObjectList::read()
    in file db/functionObjects/functionObjectList/functionObjectList.C at line 1035
    Reading "system/controlDict" at line 2 to 41
    Entry 'tEnd' is not a dictionary
--> FOAM Warning : 
    From bool Foam::functionObjectList::read()
    in file db/functionObjects/functionObjectList/functionObjectList.C at line 1035
    Reading "system/controlDict" at line 2 to 41
    Entry 'writeInterval_' is not a dictionary
--> FOAM Warning : 
    From bool Foam::functionObjectList::read()
    in file db/functionObjects/functionObjectList/functionObjectList.C at line 1035
    Reading "system/controlDict" at line 2 to 41
    Entry 'nCores' is not a dictionary
--> FOAM Warning : 
    From bool Foam::functionObjectList::read()
    in file db/functionObjects/functionObjectList/functionObjectList.C at line 1035
    Reading "system/controlDict" at line 2 to 41
    Entry 'interpScheme' is not a dictionary
--> FOAM Warning : 
    From bool Foam::functionObjectList::read()
    in file db/functionObjects/functionObjectList/functionObjectList.C at line 1035
    Reading "system/controlDict" at line 2 to 41
    Entry 'probeField' is not a dictionary
wallShearStress wallShearStress:
    processing wall patches: 
        Windsor_Body
        CFDWT_Floor
        Windsor_Pins
        Windsor_Base
        Windsor_Body_2
        CFDWT_Floor_2
        Windsor_Pins_2
        Windsor_Base_2

pressure calc_cp:
    Operating mode: staticCoeff
    Not including hydrostatic effects

forceCoeffs forceCoeffsAll:
    rho: rhoInf
    Freestream density (rhoInf) set to 1
    Not including porosity effects
    magUInf: 40
    lRef   : 0.6375
    Aref   : 0.1124
    rhoInf : 1
    Selecting all coefficients
    - Drag force: Cd
    - Drag force front: Cd(f)
    - Drag force rear: Cd(r)
    - Lift force: Cl
    - Lift force front: Cl(f)
    - Lift force rear: Cl(r)
    - Pitch moment: CmPitch
    - Roll moment: CmRoll
    - Yaw moment: CmYaw
    - Side force: Cs
    - Side force front: Cs(f)
    - Side force rear: Cs(r)


forceCoeffs dragCoeffBase:
    rho: rhoInf
    Freestream density (rhoInf) set to 1
    Not including porosity effects
    magUInf: 40
    lRef   : 0.6375
    Aref   : 0.1124
    rhoInf : 1
    Selecting coefficients:
    - Drag force: Cd


Time = 1

velocityDampingConstraint velocityDamping damped 0 (0%) of cells, with max limit 300
[INFO] MatrixAssemblyU: 1129.379 [ms]
smoothSolver:  Solving for Ux, Initial residual = 0.9999999999991107, Final residual = 0.08730376106487635, No Iterations 15
smoothSolver:  Solving for Uy, Initial residual = 1, Final residual = 0.08968718090901757, No Iterations 31
smoothSolver:  Solving for Uz, Initial residual = 1, Final residual = 0.03285812037166155, No Iterations 2
[INFO] MomentumPredictor: 1077.749 [ms]
[INFO] MatrixAssemblyPI: 170.561 [ms]
[INFO] MatrixAssemblyPII: 84.869 [ms]
[OGL LOG][lduLduBase.H:119] Initialising OGL
	OGL commit:  4647ee1+
	Branch: PersistentDeviceIdGuard 
	Build type: Release
	Ginkgo version: 1.5.0 ( develop)
	Ginkgo commit: 4292ffdee
	MPI is GPU aware: 1
	Forces host buffer based communication: 0
	CPU ranks per GPU: 1
	Matrix format: Coo
	End OGL_INFO
[OGL LOG][Proc: 0]: global_index_init: 13.25 [ms]
[OGL LOG][Proc: 0]p_local_cols: call_init: 0.042 [ms]
[OGL LOG][Proc: 0]p_local_rows: call_init: 0.003 [ms]
[OGL LOG][Proc: 0]p_local_ldu_map: call_init: 0.002 [ms]
[OGL LOG][Proc: 0]p_local_coeffs: call_init: 0.011 [ms]
[OGL LOG][Proc: 0]p_non_local_cols: call_init: 0.002 [ms]
[OGL LOG][Proc: 0]p_non_local_rows: call_init: 0.002 [ms]
[OGL LOG][Proc: 0]p_non_local_ldu_map: call_init: 0.003 [ms]
[OGL LOG][Proc: 0]p_non_local_coeffs: call_init: 0.002 [ms]
[OGL LOG][Proc: 0]p: init_local_sparsity_pattern: 162.954 [ms]
[OGL LOG][Proc: 0]p: init_non_local_sparsity_pattern: 10.617 [ms]
[OGL LOG][Proc: 0]p: update_local_matrix_data: 19.853 [ms]
[OGL LOG][Proc: 0]p: update_non_local_matrix_data: 0.117 [ms]
[OGL LOG][Proc: 0]device_partition: call_init: 2.956 [ms]
[OGL LOG][Proc: 0]p_matrix: call_init: 97.52200000000001 [ms]
[OGL LOG][Proc: 0]p_rhs: call_init: 4.086 [ms]
[OGL LOG][Proc: 0]p_solution: call_init: 1.729 [ms]
[OGL LOG][Preconditioner.H:121] Generate preconditioner BJ MaxBlockSize 1
[OGL LOG][Proc: 0]p: init_precond: 5.492 [ms]
[OGL LOG][StoppingCriterion.H:373] Creating stopping criterion with minIter 0 frequency 1
[OGL LOG][Proc: 0]p: generate_solver: 0.012 [ms]
[OGL LOG][Proc: 0]p: solve: 2866.043 [ms]
[OGL LOG][Proc: 0]p: copy_x_back: 2.596 [ms]
[OGL LOG][lduLduBase.H:336] 
Statistics:
	Time per iteration: 2453 [mu s]
	Time per residual norm calculation: 1265.000000 [mu s]
	Time per iteration and DOF: 0.194462 [ns]
	Retrieve results bandwidth 2.924000 [GByte/s]
[OGL LOG][Proc: 0]p: solve_multi_gpu: 2981.315 [ms]
BJhipGKOCG:  Solving for p, Initial residual = 1.000000000000372, Final residual = 0.009875657279739922, No Iterations 1168
[INFO] SolveP: 3430.984 [ms]
time step continuity errors : sum local = 0.003623431397580466, global = 5.27891827147542e-05, cumulative = 5.27891827147542e-05
[INFO] postSolveP: 45.455 [ms]
smoothSolver:  Solving for nuTilda, Initial residual = 0.9999999972948886, Final residual = 0.06429939697763322, No Iterations 3
[INFO] TimeStep: 6609.163 [ms]
ExecutionTime = 23 s  ClockTime = 23 s

--> FOAM Warning : 
    From virtual bool Foam::functionObjects::fieldSelection::checkSelection()
    in file functionObjects/fieldSelections/fieldSelection/fieldSelection.C at line 166
    Field k not found
--> FOAM Warning : 
    From virtual bool Foam::functionObjects::fieldSelection::checkSelection()
    in file functionObjects/fieldSelections/fieldSelection/fieldSelection.C at line 166
    Field gammaInt not found
--> FOAM Warning : 
    From virtual bool Foam::functionObjects::fieldSelection::checkSelection()
    in file functionObjects/fieldSelections/fieldSelection/fieldSelection.C at line 166
    Field omega not found
--> FOAM Warning : 
    From virtual bool Foam::functionObjects::fieldSelection::checkSelection()
    in file functionObjects/fieldSelections/fieldSelection/fieldSelection.C at line 166
    Field ReThetat not found
--> FOAM Warning : 
    From virtual bool Foam::functionObjects::fieldSelection::checkSelection()
    in file functionObjects/fieldSelections/fieldSelection/fieldSelection.C at line 166
    Field epsilon not found
--> FOAM Warning : 
    From virtual bool Foam::functionObjects::solverFieldSelection::updateSelection()
    in file functionObjects/fieldSelections/solverFieldSelection/solverFieldSelection.C at line 85
    Valid solver fields are: 3(U nuTilda p)Time = 2

velocityDampingConstraint velocityDamping damped 0 (0%) of cells, with max limit 300
[INFO] MatrixAssemblyU: 1103.984 [ms]
smoothSolver:  Solving for Ux, Initial residual = 0.2130727723907903, Final residual = 0.01841170944307283, No Iterations 13
smoothSolver:  Solving for Uy, Initial residual = 0.3547120856219344, Final residual = 0.03312737687524402, No Iterations 13
smoothSolver:  Solving for Uz, Initial residual = 0.3287196956943944, Final residual = 0.02813094749109599, No Iterations 13
[INFO] MomentumPredictor: 910.51 [ms]
[INFO] MatrixAssemblyPI: 170.657 [ms]
[INFO] MatrixAssemblyPII: 84.643 [ms]
[OGL LOG][Proc: 0]: global_index_init: 0.033 [ms]
[OGL LOG][Proc: 0]p_local_coeffs: call_update: 0.004 [ms]
[OGL LOG][Proc: 0]p_non_local_coeffs: call_update: 0 [ms]
[OGL LOG][Proc: 0]p: update_local_matrix_data: 21.547 [ms]
[OGL LOG][Proc: 0]p: update_non_local_matrix_data: 0.095 [ms]
[OGL LOG][Proc: 0]p_matrix: call_update: 6.165 [ms]
[OGL LOG][Proc: 0]p_rhs: call_update: 2.97 [ms]
[OGL LOG][Preconditioner.H:121] Generate preconditioner BJ MaxBlockSize 1
[OGL LOG][Proc: 0]p: init_precond: 0.594 [ms]
[OGL LOG][StoppingCriterion.H:373] Creating stopping criterion with minIter 700 frequency 21
[OGL LOG][Proc: 0]p: generate_solver: 0.002 [ms]
[OGL LOG][Proc: 0]p: solve: 1043.917 [ms]
[OGL LOG][Proc: 0]p: copy_x_back: 2.739 [ms]
[OGL LOG][lduLduBase.H:336] 
Statistics:
	Time per iteration: 1079 [mu s]
	Time per residual norm calculation: 263.000000 [mu s]
	Time per iteration and DOF: 0.085538 [ns]
	Retrieve results bandwidth 2.772000 [GByte/s]
[OGL LOG][Proc: 0]p: solve_multi_gpu: 1057.197 [ms]
BJhipGKOCG:  Solving for p, Initial residual = 0.2097367783853606, Final residual = 0.001589767645979475, No Iterations 967
[INFO] SolveP: 1083.913 [ms]
time step continuity errors : sum local = 0.03258555960204185, global = 0.001520618379268442, cumulative = 0.001573407561983196
[INFO] postSolveP: 44.692 [ms]
smoothSolver:  Solving for nuTilda, Initial residual = 0.4060599603692114, Final residual = 0.02531571830242232, No Iterations 1
[INFO] TimeStep: 4037.42 [ms]
ExecutionTime = 28.12 s  ClockTime = 28 s

Time = 3

velocityDampingConstraint velocityDamping damped 1659 (0.01%) of cells, with max limit 300
[INFO] MatrixAssemblyU: 1133.357 [ms]
smoothSolver:  Solving for Ux, Initial residual = 0.1248849524872445, Final residual = 0.01173511918278257, No Iterations 9
smoothSolver:  Solving for Uy, Initial residual = 0.204865380345704, Final residual = 0.01963337426772167, No Iterations 10
smoothSolver:  Solving for Uz, Initial residual = 0.2185611442120667, Final residual = 0.02136823984638259, No Iterations 9
[INFO] MomentumPredictor: 690.215 [ms]
[INFO] MatrixAssemblyPI: 171.014 [ms]
[INFO] MatrixAssemblyPII: 85.535 [ms]
[OGL LOG][Proc: 0]: global_index_init: 0.036 [ms]
[OGL LOG][Proc: 0]p_local_coeffs: call_update: 0 [ms]
[OGL LOG][Proc: 0]p_non_local_coeffs: call_update: 0 [ms]
[OGL LOG][Proc: 0]p: update_local_matrix_data: 21.689 [ms]
[OGL LOG][Proc: 0]p: update_non_local_matrix_data: 0.119 [ms]
[OGL LOG][Proc: 0]p_matrix: call_update: 6.193000000000001 [ms]
[OGL LOG][Proc: 0]p_rhs: call_update: 2.743 [ms]
[OGL LOG][Preconditioner.H:121] Generate preconditioner BJ MaxBlockSize 1
[OGL LOG][Proc: 0]p: init_precond: 0.489 [ms]
[OGL LOG][StoppingCriterion.H:373] Creating stopping criterion with minIter 580 frequency 9
[OGL LOG][Proc: 0]p: generate_solver: 0.003 [ms]
[OGL LOG][Proc: 0]p: solve: 651.404 [ms]
[OGL LOG][Proc: 0]p: copy_x_back: 2.535 [ms]
[OGL LOG][lduLduBase.H:336] 
Statistics:
	Time per iteration: 1111 [mu s]
	Time per residual norm calculation: 293.000000 [mu s]
	Time per iteration and DOF: 0.088075 [ns]
	Retrieve results bandwidth 2.995000 [GByte/s]
[OGL LOG][Proc: 0]p: solve_multi_gpu: 664.1370000000001 [ms]
BJhipGKOCG:  Solving for p, Initial residual = 0.1169671015935814, Final residual = 0.001023128250708948, No Iterations 586
[INFO] SolveP: 690.938 [ms]
time step continuity errors : sum local = 0.01154807144257045, global = 7.741426039197583e-05, cumulative = 0.001650821822375172
[INFO] postSolveP: 45.243 [ms]
smoothSolver:  Solving for nuTilda, Initial residual = 0.2093083541413167, Final residual = 0.01312760758929158, No Iterations 2
[INFO] TimeStep: 3470.355 [ms]
ExecutionTime = 32.61 s  ClockTime = 32 s

Time = 4

velocityDampingConstraint velocityDamping damped 0 (0%) of cells, with max limit 300
[INFO] MatrixAssemblyU: 1130.915 [ms]
smoothSolver:  Solving for Ux, Initial residual = 0.05438204565074485, Final residual = 0.004951786137688809, No Iterations 11
smoothSolver:  Solving for Uy, Initial residual = 0.1222934159003582, Final residual = 0.01097858177256395, No Iterations 11
smoothSolver:  Solving for Uz, Initial residual = 0.1333991056418405, Final residual = 0.01300126189466123, No Iterations 10
[INFO] MomentumPredictor: 762.604 [ms]
[INFO] MatrixAssemblyPI: 170.932 [ms]
[INFO] MatrixAssemblyPII: 84.669 [ms]
[OGL LOG][Proc: 0]: global_index_init: 0.281 [ms]
[OGL LOG][Proc: 0]p_local_coeffs: call_update: 0 [ms]
[OGL LOG][Proc: 0]p_non_local_coeffs: call_update: 0 [ms]
[OGL LOG][Proc: 0]p: update_local_matrix_data: 22.158 [ms]
[OGL LOG][Proc: 0]p: update_non_local_matrix_data: 0.08500000000000001 [ms]
[OGL LOG][Proc: 0]p_matrix: call_update: 5.915 [ms]
[OGL LOG][Proc: 0]p_rhs: call_update: 3.236 [ms]
[OGL LOG][Preconditioner.H:121] Generate preconditioner BJ MaxBlockSize 1
[OGL LOG][Proc: 0]p: init_precond: 0.553 [ms]
[OGL LOG][StoppingCriterion.H:373] Creating stopping criterion with minIter 351 frequency 8
[OGL LOG][Proc: 0]p: generate_solver: 0.002 [ms]
[OGL LOG][Proc: 0]p: solve: 410.828 [ms]
[OGL LOG][Proc: 0]p: copy_x_back: 2.543 [ms]
[OGL LOG][lduLduBase.H:336] 
Statistics:
	Time per iteration: 1163 [mu s]
	Time per residual norm calculation: 284.000000 [mu s]
	Time per iteration and DOF: 0.092197 [ns]
	Retrieve results bandwidth 2.985000 [GByte/s]
[OGL LOG][Proc: 0]p: solve_multi_gpu: 423.828 [ms]
BJhipGKOCG:  Solving for p, Initial residual = 0.1410889071669725, Final residual = 0.001400694094381478, No Iterations 353
[INFO] SolveP: 451.13 [ms]
time step continuity errors : sum local = 0.01336847934715698, global = -0.0003605839306650594, cumulative = 0.001290237891710112
[INFO] postSolveP: 47.537 [ms]
smoothSolver:  Solving for nuTilda, Initial residual = 0.1248182759703319, Final residual = 0.01051362721156179, No Iterations 2
[INFO] TimeStep: 3297.749 [ms]
ExecutionTime = 36.88 s  ClockTime = 36 s

Time = 5

velocityDampingConstraint velocityDamping damped 235 (0%) of cells, with max limit 300
[INFO] MatrixAssemblyU: 1109.069 [ms]
smoothSolver:  Solving for Ux, Initial residual = 0.04416884340785942, Final residual = 0.004194815641383891, No Iterations 10
smoothSolver:  Solving for Uy, Initial residual = 0.09804837040619653, Final residual = 0.009253686263036397, No Iterations 11
smoothSolver:  Solving for Uz, Initial residual = 0.1139875391317292, Final residual = 0.01127780426548505, No Iterations 10
[INFO] MomentumPredictor: 747.862 [ms]
[INFO] MatrixAssemblyPI: 170.965 [ms]
[INFO] MatrixAssemblyPII: 84.825 [ms]
[OGL LOG][Proc: 0]: global_index_init: 0.034 [ms]
[OGL LOG][Proc: 0]p_local_coeffs: call_update: 0 [ms]
[OGL LOG][Proc: 0]p_non_local_coeffs: call_update: 0 [ms]
[OGL LOG][Proc: 0]p: update_local_matrix_data: 21.719 [ms]
[OGL LOG][Proc: 0]p: update_non_local_matrix_data: 0.091 [ms]
[OGL LOG][Proc: 0]p_matrix: call_update: 6.029 [ms]
[OGL LOG][Proc: 0]p_rhs: call_update: 4.82 [ms]
[OGL LOG][Preconditioner.H:121] Generate preconditioner BJ MaxBlockSize 1
[OGL LOG][Proc: 0]p: init_precond: 0.548 [ms]
[OGL LOG][StoppingCriterion.H:373] Creating stopping criterion with minIter 211 frequency 5
[OGL LOG][Proc: 0]p: generate_solver: 0.002 [ms]
[OGL LOG][Proc: 0]p: solve: 410.681 [ms]
[OGL LOG][Proc: 0]p: copy_x_back: 2.563 [ms]
[OGL LOG][lduLduBase.H:336] 
Statistics:
	Time per iteration: 1204 [mu s]
	Time per residual norm calculation: 266.000000 [mu s]
	Time per iteration and DOF: 0.095447 [ns]
	Retrieve results bandwidth 2.962000 [GByte/s]
[OGL LOG][Proc: 0]p: solve_multi_gpu: 425.414 [ms]
BJhipGKOCG:  Solving for p, Initial residual = 0.1028077492669678, Final residual = 0.0009595509533171956, No Iterations 341
[INFO] SolveP: 452.269 [ms]
time step continuity errors : sum local = 0.007162117684599905, global = 0.0003189067557364225, cumulative = 0.001609144647446535
[INFO] postSolveP: 46.367 [ms]
smoothSolver:  Solving for nuTilda, Initial residual = 0.07092777959548552, Final residual = 0.00431144565174192, No Iterations 3
[INFO] TimeStep: 3276.355 [ms]
ExecutionTime = 41.1 s  ClockTime = 40 s

Time = 6

velocityDampingConstraint velocityDamping damped 0 (0%) of cells, with max limit 300
[INFO] MatrixAssemblyU: 1105.468 [ms]
smoothSolver:  Solving for Ux, Initial residual = 0.02988875005364532, Final residual = 0.002661764340438591, No Iterations 12
smoothSolver:  Solving for Uy, Initial residual = 0.07462396333921899, Final residual = 0.006909663604325661, No Iterations 12
smoothSolver:  Solving for Uz, Initial residual = 0.08082930499797158, Final residual = 0.00692794540290474, No Iterations 12
[INFO] MomentumPredictor: 843.207 [ms]
[INFO] MatrixAssemblyPI: 171.042 [ms]
[INFO] MatrixAssemblyPII: 85.294 [ms]
[OGL LOG][Proc: 0]: global_index_init: 0.033 [ms]
[OGL LOG][Proc: 0]p_local_coeffs: call_update: 0 [ms]
[OGL LOG][Proc: 0]p_non_local_coeffs: call_update: 0 [ms]
[OGL LOG][Proc: 0]p: update_local_matrix_data: 21.809 [ms]
[OGL LOG][Proc: 0]p: update_non_local_matrix_data: 0.08799999999999999 [ms]
[OGL LOG][Proc: 0]p_matrix: call_update: 7.661 [ms]
[OGL LOG][Proc: 0]p_rhs: call_update: 3.359 [ms]
[OGL LOG][Preconditioner.H:121] Generate preconditioner BJ MaxBlockSize 1
[OGL LOG][Proc: 0]p: init_precond: 0.497 [ms]
[OGL LOG][StoppingCriterion.H:373] Creating stopping criterion with minIter 204 frequency 5
[OGL LOG][Proc: 0]p: generate_solver: 0.003 [ms]
[OGL LOG][Proc: 0]p: solve: 384.003 [ms]
[OGL LOG][Proc: 0]p: copy_x_back: 2.747 [ms]
[OGL LOG][lduLduBase.H:336] 
Statistics:
	Time per iteration: 1177 [mu s]
	Time per residual norm calculation: 263.000000 [mu s]
	Time per iteration and DOF: 0.093307 [ns]
	Retrieve results bandwidth 2.763000 [GByte/s]
[OGL LOG][Proc: 0]p: solve_multi_gpu: 398.988 [ms]
BJhipGKOCG:  Solving for p, Initial residual = 0.0913759471470998, Final residual = 0.0008842981057557037, No Iterations 326
[INFO] SolveP: 428.448 [ms]
time step continuity errors : sum local = 0.006867534698754629, global = 9.023631034310955e-05, cumulative = 0.001699380957789644
[INFO] postSolveP: 47.057 [ms]
smoothSolver:  Solving for nuTilda, Initial residual = 0.06435031780237492, Final residual = 0.006434849138411721, No Iterations 2
[INFO] TimeStep: 3323.586 [ms]
ExecutionTime = 45.35 s  ClockTime = 45 s

Time = 7

velocityDampingConstraint velocityDamping damped 29 (0%) of cells, with max limit 300
[INFO] MatrixAssemblyU: 1094.141 [ms]
smoothSolver:  Solving for Ux, Initial residual = 0.02702099840660804, Final residual = 0.002408119731367376, No Iterations 12
smoothSolver:  Solving for Uy, Initial residual = 0.06763664626503015, Final residual = 0.00639400954557236, No Iterations 12
smoothSolver:  Solving for Uz, Initial residual = 0.07104980301737251, Final residual = 0.006216977003806311, No Iterations 12
[INFO] MomentumPredictor: 845.173 [ms]
[INFO] MatrixAssemblyPI: 170.731 [ms]
[INFO] MatrixAssemblyPII: 84.886 [ms]
[OGL LOG][Proc: 0]: global_index_init: 0.035 [ms]
[OGL LOG][Proc: 0]p_local_coeffs: call_update: 0 [ms]
[OGL LOG][Proc: 0]p_non_local_coeffs: call_update: 0 [ms]
[OGL LOG][Proc: 0]p: update_local_matrix_data: 22.27 [ms]
[OGL LOG][Proc: 0]p: update_non_local_matrix_data: 0.11 [ms]
[OGL LOG][Proc: 0]p_matrix: call_update: 7.768 [ms]
[OGL LOG][Proc: 0]p_rhs: call_update: 2.633 [ms]
[OGL LOG][Preconditioner.H:121] Generate preconditioner BJ MaxBlockSize 1
[OGL LOG][Proc: 0]p: init_precond: 0.5580000000000001 [ms]
[OGL LOG][StoppingCriterion.H:373] Creating stopping criterion with minIter 195 frequency 5
[OGL LOG][Proc: 0]p: generate_solver: 0.002 [ms]
[OGL LOG][Proc: 0]p: solve: 412.449 [ms]
[OGL LOG][Proc: 0]p: copy_x_back: 2.579 [ms]
[OGL LOG][lduLduBase.H:336] 
Statistics:
	Time per iteration: 1158 [mu s]
	Time per residual norm calculation: 260.000000 [mu s]
	Time per iteration and DOF: 0.091801 [ns]
	Retrieve results bandwidth 2.944000 [GByte/s]
[OGL LOG][Proc: 0]p: solve_multi_gpu: 426.743 [ms]
BJhipGKOCG:  Solving for p, Initial residual = 0.07955143518287275, Final residual = 0.0007732938743068742, No Iterations 356
[INFO] SolveP: 454.321 [ms]
time step continuity errors : sum local = 0.005886003993916279, global = -0.0005077432512369899, cumulative = 0.001191637706552654
[INFO] postSolveP: 44.891 [ms]
smoothSolver:  Solving for nuTilda, Initial residual = 0.04947971456666739, Final residual = 0.003235177773521738, No Iterations 3
[INFO] TimeStep: 3354.963 [ms]
ExecutionTime = 49.64 s  ClockTime = 49 s

Time = 8

velocityDampingConstraint velocityDamping damped 0 (0%) of cells, with max limit 300
[INFO] MatrixAssemblyU: 1087.451 [ms]
smoothSolver:  Solving for Ux, Initial residual = 0.02305292467604525, Final residual = 0.00213658714800102, No Iterations 12
smoothSolver:  Solving for Uy, Initial residual = 0.06015876026785445, Final residual = 0.005905045978873401, No Iterations 12
smoothSolver:  Solving for Uz, Initial residual = 0.06206894343354558, Final residual = 0.00562542468277571, No Iterations 12
[INFO] MomentumPredictor: 842.4 [ms]
[INFO] MatrixAssemblyPI: 170.346 [ms]
[INFO] MatrixAssemblyPII: 84.926 [ms]
[OGL LOG][Proc: 0]: global_index_init: 0.033 [ms]
[OGL LOG][Proc: 0]p_local_coeffs: call_update: 0 [ms]
[OGL LOG][Proc: 0]p_non_local_coeffs: call_update: 0 [ms]
[OGL LOG][Proc: 0]p: update_local_matrix_data: 21.802 [ms]
[OGL LOG][Proc: 0]p: update_non_local_matrix_data: 0.089 [ms]
[OGL LOG][Proc: 0]p_matrix: call_update: 5.855 [ms]
[OGL LOG][Proc: 0]p_rhs: call_update: 5.842000000000001 [ms]
[OGL LOG][Preconditioner.H:121] Generate preconditioner BJ MaxBlockSize 1
[OGL LOG][Proc: 0]p: init_precond: 0.477 [ms]
[OGL LOG][StoppingCriterion.H:373] Creating stopping criterion with minIter 213 frequency 5
[OGL LOG][Proc: 0]p: generate_solver: 0.002 [ms]
[OGL LOG][Proc: 0]p: solve: 869.6940000000001 [ms]
[OGL LOG][Proc: 0]p: copy_x_back: 2.645 [ms]
[OGL LOG][lduLduBase.H:336] 
Statistics:
	Time per iteration: 1158 [mu s]
	Time per residual norm calculation: 266.000000 [mu s]
	Time per iteration and DOF: 0.091801 [ns]
	Retrieve results bandwidth 2.870000 [GByte/s]
[OGL LOG][Proc: 0]p: solve_multi_gpu: 885.274 [ms]
BJhipGKOCG:  Solving for p, Initial residual = 0.07194915487487216, Final residual = 0.0007192839578106488, No Iterations 751
[INFO] SolveP: 912.424 [ms]
time step continuity errors : sum local = 0.005579393359258632, global = -0.0003693463106928917, cumulative = 0.0008222913958597627
[INFO] postSolveP: 48.243 [ms]
smoothSolver:  Solving for nuTilda, Initial residual = 0.06587259982997248, Final residual = 0.005894540976310229, No Iterations 2
[INFO] TimeStep: 3790.558 [ms]
ExecutionTime = 54.45 s  ClockTime = 54 s

Time = 9

velocityDampingConstraint velocityDamping damped 0 (0%) of cells, with max limit 300
[INFO] MatrixAssemblyU: 1093.967 [ms]
smoothSolver:  Solving for Ux, Initial residual = 0.02047755408398238, Final residual = 0.001906760495654809, No Iterations 12
smoothSolver:  Solving for Uy, Initial residual = 0.05445974102647137, Final residual = 0.005407754973743298, No Iterations 12
smoothSolver:  Solving for Uz, Initial residual = 0.0553781332640957, Final residual = 0.005125609144750367, No Iterations 12
[INFO] MomentumPredictor: 842.553 [ms]
[INFO] MatrixAssemblyPI: 170.217 [ms]
[INFO] MatrixAssemblyPII: 85.137 [ms]
[OGL LOG][Proc: 0]: global_index_init: 0.142 [ms]
[OGL LOG][Proc: 0]p_local_coeffs: call_update: 0 [ms]
[OGL LOG][Proc: 0]p_non_local_coeffs: call_update: 0 [ms]
[OGL LOG][Proc: 0]p: update_local_matrix_data: 21.82 [ms]
[OGL LOG][Proc: 0]p: update_non_local_matrix_data: 0.096 [ms]
[OGL LOG][Proc: 0]p_matrix: call_update: 9.42 [ms]
[OGL LOG][Proc: 0]p_rhs: call_update: 0.982 [ms]
[OGL LOG][Preconditioner.H:121] Generate preconditioner BJ MaxBlockSize 1
[OGL LOG][Proc: 0]p: init_precond: 0.487 [ms]
[OGL LOG][StoppingCriterion.H:373] Creating stopping criterion with minIter 450 frequency 8
[OGL LOG][Proc: 0]p: generate_solver: 0.003 [ms]
[OGL LOG][Proc: 0]p: solve: 509.317 [ms]
[OGL LOG][Proc: 0]p: copy_x_back: 2.524 [ms]
[OGL LOG][lduLduBase.H:336] 
Statistics:
	Time per iteration: 1114 [mu s]
	Time per residual norm calculation: 294.000000 [mu s]
	Time per iteration and DOF: 0.088313 [ns]
	Retrieve results bandwidth 3.008000 [GByte/s]
[OGL LOG][Proc: 0]p: solve_multi_gpu: 523.509 [ms]
BJhipGKOCG:  Solving for p, Initial residual = 0.06874332971266567, Final residual = 0.0003867816067383584, No Iterations 457
[INFO] SolveP: 550.554 [ms]
time step continuity errors : sum local = 0.002904152213163219, global = 0.0005571392941065807, cumulative = 0.001379430689966343
[INFO] postSolveP: 44.614 [ms]
smoothSolver:  Solving for nuTilda, Initial residual = 0.04447957813775651, Final residual = 0.003228619723539341, No Iterations 3
[INFO] TimeStep: 3447.607 [ms]
ExecutionTime = 58.86 s  ClockTime = 58 s

Time = 10

velocityDampingConstraint velocityDamping damped 0 (0%) of cells, with max limit 300
[INFO] MatrixAssemblyU: 1088.293 [ms]
smoothSolver:  Solving for Ux, Initial residual = 0.01843116938467539, Final residual = 0.001727763620506323, No Iterations 12
smoothSolver:  Solving for Uy, Initial residual = 0.05014753108963729, Final residual = 0.004987238203449262, No Iterations 12
smoothSolver:  Solving for Uz, Initial residual = 0.05060881244698197, Final residual = 0.004760004023659812, No Iterations 12
[INFO] MomentumPredictor: 841.149 [ms]
[INFO] MatrixAssemblyPI: 170.684 [ms]
[INFO] MatrixAssemblyPII: 84.818 [ms]
[OGL LOG][Proc: 0]: global_index_init: 0.092 [ms]
[OGL LOG][Proc: 0]p_local_coeffs: call_update: 0 [ms]
[OGL LOG][Proc: 0]p_non_local_coeffs: call_update: 0 [ms]
[OGL LOG][Proc: 0]p: update_local_matrix_data: 21.522 [ms]
[OGL LOG][Proc: 0]p: update_non_local_matrix_data: 0.09 [ms]
[OGL LOG][Proc: 0]p_matrix: call_update: 10.802 [ms]
[OGL LOG][Proc: 0]p_rhs: call_update: 1.039 [ms]
[OGL LOG][Preconditioner.H:121] Generate preconditioner BJ MaxBlockSize 1
[OGL LOG][Proc: 0]p: init_precond: 0.49 [ms]
[OGL LOG][StoppingCriterion.H:373] Creating stopping criterion with minIter 274 frequency 7
[OGL LOG][Proc: 0]p: generate_solver: 0.003 [ms]
[OGL LOG][Proc: 0]p: solve: 356.897 [ms]
[OGL LOG][Proc: 0]p: copy_x_back: 2.577 [ms]
[OGL LOG][lduLduBase.H:336] 
Statistics:
	Time per iteration: 1155 [mu s]
	Time per residual norm calculation: 267.000000 [mu s]
	Time per iteration and DOF: 0.091563 [ns]
	Retrieve results bandwidth 2.946000 [GByte/s]
[OGL LOG][Proc: 0]p: solve_multi_gpu: 372.565 [ms]
BJhipGKOCG:  Solving for p, Initial residual = 0.06282509230522121, Final residual = 0.0006169371112169415, No Iterations 309
[INFO] SolveP: 399.18 [ms]
time step continuity errors : sum local = 0.004591628376295344, global = 0.001039875582048743, cumulative = 0.002419306272015086
[INFO] postSolveP: 45.662 [ms]
smoothSolver:  Solving for nuTilda, Initial residual = 0.06996318128910375, Final residual = 0.005539422917857811, No Iterations 2
[INFO] TimeStep: 3269.999 [ms]
ExecutionTime = 63.04 s  ClockTime = 62 s

Time = 11

velocityDampingConstraint velocityDamping damped 0 (0%) of cells, with max limit 300
[INFO] MatrixAssemblyU: 1085.699 [ms]
smoothSolver:  Solving for Ux, Initial residual = 0.01673589011882508, Final residual = 0.001603231927081304, No Iterations 12
smoothSolver:  Solving for Uy, Initial residual = 0.04730038820842026, Final residual = 0.004671698451493944, No Iterations 12
smoothSolver:  Solving for Uz, Initial residual = 0.0471382018157069, Final residual = 0.004473335951491348, No Iterations 12
[INFO] MomentumPredictor: 843.974 [ms]
[INFO] MatrixAssemblyPI: 171.12 [ms]
[INFO] MatrixAssemblyPII: 85.306 [ms]
[OGL LOG][Proc: 0]: global_index_init: 0.032 [ms]
[OGL LOG][Proc: 0]p_local_coeffs: call_update: 0 [ms]
[OGL LOG][Proc: 0]p_non_local_coeffs: call_update: 0 [ms]
[OGL LOG][Proc: 0]p: update_local_matrix_data: 22.024 [ms]
[OGL LOG][Proc: 0]p: update_non_local_matrix_data: 0.09 [ms]
[OGL LOG][Proc: 0]p_matrix: call_update: 6.671 [ms]
[OGL LOG][Proc: 0]p_rhs: call_update: 3.432 [ms]
[OGL LOG][Preconditioner.H:121] Generate preconditioner BJ MaxBlockSize 1
[OGL LOG][Proc: 0]p: init_precond: 0.489 [ms]
[OGL LOG][StoppingCriterion.H:373] Creating stopping criterion with minIter 185 frequency 5
[OGL LOG][Proc: 0]p: generate_solver: 0.002 [ms]
[OGL LOG][Proc: 0]p: solve: 844.2330000000001 [ms]
[OGL LOG][Proc: 0]p: copy_x_back: 2.542 [ms]
[OGL LOG][lduLduBase.H:336] 
Statistics:
	Time per iteration: 1131 [mu s]
	Time per residual norm calculation: 262.000000 [mu s]
	Time per iteration and DOF: 0.089660 [ns]
	Retrieve results bandwidth 2.986000 [GByte/s]
[OGL LOG][Proc: 0]p: solve_multi_gpu: 858.123 [ms]
BJhipGKOCG:  Solving for p, Initial residual = 0.05836831247591096, Final residual = 0.0005576662677197791, No Iterations 746
[INFO] SolveP: 885.2089999999999 [ms]
time step continuity errors : sum local = 0.004167809929236038, global = -0.0001673854023196818, cumulative = 0.002251920869695404
[INFO] postSolveP: 44.946 [ms]
smoothSolver:  Solving for nuTilda, Initial residual = 0.03934948523588615, Final residual = 0.003053491090163379, No Iterations 3
[INFO] TimeStep: 3775.043 [ms]
ExecutionTime = 67.81999999999999 s  ClockTime = 67 s

Time = 12

velocityDampingConstraint velocityDamping damped 0 (0%) of cells, with max limit 300
[INFO] MatrixAssemblyU: 1084.699 [ms]
smoothSolver:  Solving for Ux, Initial residual = 0.01559349591467779, Final residual = 0.001513669776410126, No Iterations 12
smoothSolver:  Solving for Uy, Initial residual = 0.04564908306547517, Final residual = 0.00445619433673976, No Iterations 12
smoothSolver:  Solving for Uz, Initial residual = 0.04518382212890079, Final residual = 0.004282578796909678, No Iterations 12
[INFO] MomentumPredictor: 840.078 [ms]
[INFO] MatrixAssemblyPI: 170.348 [ms]
[INFO] MatrixAssemblyPII: 84.705 [ms]
[OGL LOG][Proc: 0]: global_index_init: 0.036 [ms]
[OGL LOG][Proc: 0]p_local_coeffs: call_update: 0 [ms]
[OGL LOG][Proc: 0]p_non_local_coeffs: call_update: 0 [ms]
[OGL LOG][Proc: 0]p: update_local_matrix_data: 21.847 [ms]
[OGL LOG][Proc: 0]p: update_non_local_matrix_data: 0.09 [ms]
[OGL LOG][Proc: 0]p_matrix: call_update: 5.67 [ms]
[OGL LOG][Proc: 0]p_rhs: call_update: 4.397 [ms]
[OGL LOG][Preconditioner.H:121] Generate preconditioner BJ MaxBlockSize 1
[OGL LOG][Proc: 0]p: init_precond: 0.547 [ms]
[OGL LOG][StoppingCriterion.H:373] Creating stopping criterion with minIter 447 frequency 8
[OGL LOG][Proc: 0]p: generate_solver: 0.002 [ms]
[OGL LOG][Proc: 0]p: solve: 513.543 [ms]
[OGL LOG][Proc: 0]p: copy_x_back: 2.574 [ms]
[OGL LOG][lduLduBase.H:336] 
Statistics:
	Time per iteration: 1143 [mu s]
	Time per residual norm calculation: 287.000000 [mu s]
	Time per iteration and DOF: 0.090612 [ns]
	Retrieve results bandwidth 2.949000 [GByte/s]
[OGL LOG][Proc: 0]p: solve_multi_gpu: 527.5070000000001 [ms]
BJhipGKOCG:  Solving for p, Initial residual = 0.05097712889742659, Final residual = 0.0003241220883774706, No Iterations 449
[INFO] SolveP: 554.513 [ms]
time step continuity errors : sum local = 0.002598423603873531, global = -0.0004284023580463234, cumulative = 0.00182351851164908
[INFO] postSolveP: 44.898 [ms]
smoothSolver:  Solving for nuTilda, Initial residual = 0.06580889928054801, Final residual = 0.005138746288366795, No Iterations 2
[INFO] TimeStep: 3418.261 [ms]
ExecutionTime = 72.18000000000001 s  ClockTime = 71 s

Time = 13

velocityDampingConstraint velocityDamping damped 0 (0%) of cells, with max limit 300
[INFO] MatrixAssemblyU: 1083.659 [ms]
smoothSolver:  Solving for Ux, Initial residual = 0.01448668625302238, Final residual = 0.001439698311820278, No Iterations 12
smoothSolver:  Solving for Uy, Initial residual = 0.04353376284253348, Final residual = 0.004259448880944087, No Iterations 12
smoothSolver:  Solving for Uz, Initial residual = 0.04306677899834006, Final residual = 0.004138479968431586, No Iterations 12
[INFO] MomentumPredictor: 842.83 [ms]
[INFO] MatrixAssemblyPI: 170.663 [ms]
[INFO] MatrixAssemblyPII: 85.065 [ms]
[OGL LOG][Proc: 0]: global_index_init: 0.036 [ms]
[OGL LOG][Proc: 0]p_local_coeffs: call_update: 0 [ms]
[OGL LOG][Proc: 0]p_non_local_coeffs: call_update: 0 [ms]
[OGL LOG][Proc: 0]p: update_local_matrix_data: 21.401 [ms]
[OGL LOG][Proc: 0]p: update_non_local_matrix_data: 0.08799999999999999 [ms]
[OGL LOG][Proc: 0]p_matrix: call_update: 5.792 [ms]
[OGL LOG][Proc: 0]p_rhs: call_update: 5.112 [ms]
[OGL LOG][Preconditioner.H:121] Generate preconditioner BJ MaxBlockSize 1
[OGL LOG][Proc: 0]p: init_precond: 0.598 [ms]
[OGL LOG][StoppingCriterion.H:373] Creating stopping criterion with minIter 269 frequency 7
[OGL LOG][Proc: 0]p: generate_solver: 0.002 [ms]
[OGL LOG][Proc: 0]p: solve: 698.0170000000001 [ms]
[OGL LOG][Proc: 0]p: copy_x_back: 2.539 [ms]
[OGL LOG][lduLduBase.H:336] 
Statistics:
	Time per iteration: 1131 [mu s]
	Time per residual norm calculation: 265.000000 [mu s]
	Time per iteration and DOF: 0.089660 [ns]
	Retrieve results bandwidth 2.990000 [GByte/s]
[OGL LOG][Proc: 0]p: solve_multi_gpu: 712.836 [ms]
BJhipGKOCG:  Solving for p, Initial residual = 0.04850383884319368, Final residual = 0.000481566198130476, No Iterations 617
[INFO] SolveP: 739.777 [ms]
time step continuity errors : sum local = 0.003826870545938378, global = -0.0001119877620367748, cumulative = 0.001711530749612306
[INFO] postSolveP: 44.94 [ms]
smoothSolver:  Solving for nuTilda, Initial residual = 0.034781837988623, Final residual = 0.002852764731042304, No Iterations 3
[INFO] TimeStep: 3624.229 [ms]
ExecutionTime = 76.79000000000001 s  ClockTime = 75 s

Time = 14

velocityDampingConstraint velocityDamping damped 0 (0%) of cells, with max limit 300
[INFO] MatrixAssemblyU: 1083.13 [ms]
smoothSolver:  Solving for Ux, Initial residual = 0.01372288198660668, Final residual = 0.001172014957800202, No Iterations 13
smoothSolver:  Solving for Uy, Initial residual = 0.04183785640011418, Final residual = 0.004095718694088229, No Iterations 12
smoothSolver:  Solving for Uz, Initial residual = 0.04217037034820455, Final residual = 0.004060741393609053, No Iterations 12
[INFO] MomentumPredictor: 857.453 [ms]
[INFO] MatrixAssemblyPI: 170.393 [ms]
[INFO] MatrixAssemblyPII: 84.95 [ms]
[OGL LOG][Proc: 0]: global_index_init: 0.033 [ms]
[OGL LOG][Proc: 0]p_local_coeffs: call_update: 0 [ms]
[OGL LOG][Proc: 0]p_non_local_coeffs: call_update: 0 [ms]
[OGL LOG][Proc: 0]p: update_local_matrix_data: 21.505 [ms]
[OGL LOG][Proc: 0]p: update_non_local_matrix_data: 0.093 [ms]
[OGL LOG][Proc: 0]p_matrix: call_update: 5.536 [ms]
[OGL LOG][Proc: 0]p_rhs: call_update: 3.74 [ms]
[OGL LOG][Preconditioner.H:121] Generate preconditioner BJ MaxBlockSize 1
[OGL LOG][Proc: 0]p: init_precond: 0.5600000000000001 [ms]
[OGL LOG][StoppingCriterion.H:373] Creating stopping criterion with minIter 370 frequency 7
[OGL LOG][Proc: 0]p: generate_solver: 0.002 [ms]
[OGL LOG][Proc: 0]p: solve: 429.215 [ms]
[OGL LOG][Proc: 0]p: copy_x_back: 2.613 [ms]
[OGL LOG][lduLduBase.H:336] 
Statistics:
	Time per iteration: 1153 [mu s]
	Time per residual norm calculation: 283.000000 [mu s]
	Time per iteration and DOF: 0.091404 [ns]
	Retrieve results bandwidth 2.905000 [GByte/s]
[OGL LOG][Proc: 0]p: solve_multi_gpu: 442.43 [ms]
BJhipGKOCG:  Solving for p, Initial residual = 0.04789972435434895, Final residual = 0.000144294506247858, No Iterations 372
[INFO] SolveP: 469.32 [ms]
time step continuity errors : sum local = 0.001109441218150548, global = 0.0002053196562846413, cumulative = 0.001916850405896947
[INFO] postSolveP: 44.99 [ms]
smoothSolver:  Solving for nuTilda, Initial residual = 0.05854104614132999, Final residual = 0.004828208923854544, No Iterations 2
[INFO] TimeStep: 3349.847 [ms]
ExecutionTime = 81.06999999999999 s  ClockTime = 80 s

Time = 15

velocityDampingConstraint velocityDamping damped 0 (0%) of cells, with max limit 300
[INFO] MatrixAssemblyU: 1079.908 [ms]
smoothSolver:  Solving for Ux, Initial residual = 0.01284470416780447, Final residual = 0.001110305131633993, No Iterations 13
smoothSolver:  Solving for Uy, Initial residual = 0.04016357266850163, Final residual = 0.003969067730675166, No Iterations 12
smoothSolver:  Solving for Uz, Initial residual = 0.04163652585884275, Final residual = 0.004038813749397275, No Iterations 12
[INFO] MomentumPredictor: 862.133 [ms]
[INFO] MatrixAssemblyPI: 170.705 [ms]
[INFO] MatrixAssemblyPII: 85.08799999999999 [ms]
[OGL LOG][Proc: 0]: global_index_init: 0.156 [ms]
[OGL LOG][Proc: 0]p_local_coeffs: call_update: 0 [ms]
[OGL LOG][Proc: 0]p_non_local_coeffs: call_update: 0 [ms]
[OGL LOG][Proc: 0]p: update_local_matrix_data: 21.748 [ms]
[OGL LOG][Proc: 0]p: update_non_local_matrix_data: 0.08700000000000001 [ms]
[OGL LOG][Proc: 0]p_matrix: call_update: 7.303 [ms]
[OGL LOG][Proc: 0]p_rhs: call_update: 2.816 [ms]
[OGL LOG][Preconditioner.H:121] Generate preconditioner BJ MaxBlockSize 1
[OGL LOG][Proc: 0]p: init_precond: 0.581 [ms]
[OGL LOG][StoppingCriterion.H:373] Creating stopping criterion with minIter 223 frequency 6
[OGL LOG][Proc: 0]p: generate_solver: 0.002 [ms]
[OGL LOG][Proc: 0]p: solve: 318.477 [ms]
[OGL LOG][Proc: 0]p: copy_x_back: 2.546 [ms]
[OGL LOG][lduLduBase.H:336] 
Statistics:
	Time per iteration: 1201 [mu s]
	Time per residual norm calculation: 261.000000 [mu s]
	Time per iteration and DOF: 0.095210 [ns]
	Retrieve results bandwidth 2.982000 [GByte/s]
[OGL LOG][Proc: 0]p: solve_multi_gpu: 332.687 [ms]
BJhipGKOCG:  Solving for p, Initial residual = 0.04626901163230478, Final residual = 0.0004610718100675243, No Iterations 265
[INFO] SolveP: 359.662 [ms]
time step continuity errors : sum local = 0.003558891791659675, global = 0.0005213886431989683, cumulative = 0.002438239049095915
[INFO] postSolveP: 45.28 [ms]
smoothSolver:  Solving for nuTilda, Initial residual = 0.03120963535763821, Final residual = 0.002682249890573179, No Iterations 3
[INFO] TimeStep: 3259.497 [ms]
ExecutionTime = 85.23 s  ClockTime = 84 s

Time = 16

velocityDampingConstraint velocityDamping damped 0 (0%) of cells, with max limit 300
[INFO] MatrixAssemblyU: 1079.356 [ms]
smoothSolver:  Solving for Ux, Initial residual = 0.01220250718940503, Final residual = 0.001054952515461665, No Iterations 13
smoothSolver:  Solving for Uy, Initial residual = 0.03929034703205578, Final residual = 0.003903892697171799, No Iterations 12
smoothSolver:  Solving for Uz, Initial residual = 0.0415981109930317, Final residual = 0.004052664780165588, No Iterations 12
[INFO] MomentumPredictor: 863.528 [ms]
[INFO] MatrixAssemblyPI: 171.16 [ms]
[INFO] MatrixAssemblyPII: 84.881 [ms]
[OGL LOG][Proc: 0]: global_index_init: 0.035 [ms]
[OGL LOG][Proc: 0]p_local_coeffs: call_update: 0 [ms]
[OGL LOG][Proc: 0]p_non_local_coeffs: call_update: 0 [ms]
[OGL LOG][Proc: 0]p: update_local_matrix_data: 21.745 [ms]
[OGL LOG][Proc: 0]p: update_non_local_matrix_data: 0.096 [ms]
[OGL LOG][Proc: 0]p_matrix: call_update: 6.036 [ms]
[OGL LOG][Proc: 0]p_rhs: call_update: 4.324 [ms]
[OGL LOG][Preconditioner.H:121] Generate preconditioner BJ MaxBlockSize 1
[OGL LOG][Proc: 0]p: init_precond: 0.614 [ms]
[OGL LOG][StoppingCriterion.H:373] Creating stopping criterion with minIter 159 frequency 5
[OGL LOG][Proc: 0]p: generate_solver: 0.002 [ms]
[OGL LOG][Proc: 0]p: solve: 369.918 [ms]
[OGL LOG][Proc: 0]p: copy_x_back: 2.712 [ms]
[OGL LOG][lduLduBase.H:336] 
Statistics:
	Time per iteration: 1189 [mu s]
	Time per residual norm calculation: 264.000000 [mu s]
	Time per iteration and DOF: 0.094258 [ns]
	Retrieve results bandwidth 2.799000 [GByte/s]
[OGL LOG][Proc: 0]p: solve_multi_gpu: 384.385 [ms]
BJhipGKOCG:  Solving for p, Initial residual = 0.04489059552589001, Final residual = 0.000443788989194847, No Iterations 311
[INFO] SolveP: 411.348 [ms]
time step continuity errors : sum local = 0.003441775217254162, global = 0.0006978301386083613, cumulative = 0.003136069187704276
[INFO] postSolveP: 45.313 [ms]
smoothSolver:  Solving for nuTilda, Initial residual = 0.05195152714476362, Final residual = 0.004574055094941399, No Iterations 2
[INFO] TimeStep: 3293.015 [ms]
ExecutionTime = 89.44 s  ClockTime = 88 s

Time = 17

velocityDampingConstraint velocityDamping damped 0 (0%) of cells, with max limit 300
[INFO] MatrixAssemblyU: 1079.131 [ms]
smoothSolver:  Solving for Ux, Initial residual = 0.01158047207499585, Final residual = 0.001007119018182865, No Iterations 13
smoothSolver:  Solving for Uy, Initial residual = 0.03881911838749563, Final residual = 0.003880701938670398, No Iterations 12
smoothSolver:  Solving for Uz, Initial residual = 0.0415612119085666, Final residual = 0.004056342957835377, No Iterations 12
[INFO] MomentumPredictor: 859.937 [ms]
[INFO] MatrixAssemblyPI: 170.584 [ms]
[INFO] MatrixAssemblyPII: 85.504 [ms]
[OGL LOG][Proc: 0]: global_index_init: 0.104 [ms]
[OGL LOG][Proc: 0]p_local_coeffs: call_update: 0 [ms]
[OGL LOG][Proc: 0]p_non_local_coeffs: call_update: 0 [ms]
[OGL LOG][Proc: 0]p: update_local_matrix_data: 22.217 [ms]
[OGL LOG][Proc: 0]p: update_non_local_matrix_data: 0.089 [ms]
[OGL LOG][Proc: 0]p_matrix: call_update: 8.677 [ms]
[OGL LOG][Proc: 0]p_rhs: call_update: 1.159 [ms]
[OGL LOG][Preconditioner.H:121] Generate preconditioner BJ MaxBlockSize 1
[OGL LOG][Proc: 0]p: init_precond: 0.525 [ms]
[OGL LOG][StoppingCriterion.H:373] Creating stopping criterion with minIter 186 frequency 5
[OGL LOG][Proc: 0]p: generate_solver: 0.002 [ms]
[OGL LOG][Proc: 0]p: solve: 746.846 [ms]
[OGL LOG][Proc: 0]p: copy_x_back: 2.748 [ms]
[OGL LOG][lduLduBase.H:336] 
Statistics:
	Time per iteration: 1138 [mu s]
	Time per residual norm calculation: 262.000000 [mu s]
	Time per iteration and DOF: 0.090215 [ns]
	Retrieve results bandwidth 2.762000 [GByte/s]
[OGL LOG][Proc: 0]p: solve_multi_gpu: 760.732 [ms]
BJhipGKOCG:  Solving for p, Initial residual = 0.04420622965650654, Final residual = 0.0004380035239240953, No Iterations 656
[INFO] SolveP: 788.045 [ms]
time step continuity errors : sum local = 0.003433412312592254, global = -0.0001347459551226236, cumulative = 0.003001323232581652
[INFO] postSolveP: 45.01 [ms]
smoothSolver:  Solving for nuTilda, Initial residual = 0.02858595530517955, Final residual = 0.002529940004171288, No Iterations 3
[INFO] TimeStep: 3684.086 [ms]
ExecutionTime = 94.09999999999999 s  ClockTime = 93 s

Time = 18

velocityDampingConstraint velocityDamping damped 0 (0%) of cells, with max limit 300
[INFO] MatrixAssemblyU: 1081.815 [ms]
smoothSolver:  Solving for Ux, Initial residual = 0.01120698485030581, Final residual = 0.0009649950702783447, No Iterations 13
smoothSolver:  Solving for Uy, Initial residual = 0.038880634202774, Final residual = 0.003319456449671317, No Iterations 13
smoothSolver:  Solving for Uz, Initial residual = 0.04192361691787054, Final residual = 0.004074629190888313, No Iterations 12
[INFO] MomentumPredictor: 880.643 [ms]
[INFO] MatrixAssemblyPI: 171.574 [ms]
[INFO] MatrixAssemblyPII: 85.446 [ms]
[OGL LOG][Proc: 0]: global_index_init: 0.033 [ms]
[OGL LOG][Proc: 0]p_local_coeffs: call_update: 0 [ms]
[OGL LOG][Proc: 0]p_non_local_coeffs: call_update: 0 [ms]
[OGL LOG][Proc: 0]p: update_local_matrix_data: 21.594 [ms]
[OGL LOG][Proc: 0]p: update_non_local_matrix_data: 0.099 [ms]
[OGL LOG][Proc: 0]p_matrix: call_update: 7.936 [ms]
[OGL LOG][Proc: 0]p_rhs: call_update: 3.27 [ms]
[OGL LOG][Preconditioner.H:121] Generate preconditioner BJ MaxBlockSize 1
[OGL LOG][Proc: 0]p: init_precond: 0.59 [ms]
[OGL LOG][StoppingCriterion.H:373] Creating stopping criterion with minIter 393 frequency 8
[OGL LOG][Proc: 0]p: generate_solver: 0.002 [ms]
[OGL LOG][Proc: 0]p: solve: 468.329 [ms]
[OGL LOG][Proc: 0]p: copy_x_back: 2.567 [ms]
[OGL LOG][lduLduBase.H:336] 
Statistics:
	Time per iteration: 1167 [mu s]
	Time per residual norm calculation: 288.000000 [mu s]
	Time per iteration and DOF: 0.092514 [ns]
	Retrieve results bandwidth 2.957000 [GByte/s]
[OGL LOG][Proc: 0]p: solve_multi_gpu: 483.461 [ms]
BJhipGKOCG:  Solving for p, Initial residual = 0.04279633627817334, Final residual = 0.0001605639533756201, No Iterations 401
[INFO] SolveP: 510.265 [ms]
time step continuity errors : sum local = 0.001306035747220786, global = -0.0002459473712609071, cumulative = 0.002755375861320745
[INFO] postSolveP: 45.206 [ms]
smoothSolver:  Solving for nuTilda, Initial residual = 0.04658338131605435, Final residual = 0.004317627079505519, No Iterations 2
[INFO] TimeStep: 3410.337 [ms]
ExecutionTime = 98.44 s  ClockTime = 97 s

Time = 19

velocityDampingConstraint velocityDamping damped 0 (0%) of cells, with max limit 300
[INFO] MatrixAssemblyU: 1083.984 [ms]
smoothSolver:  Solving for Ux, Initial residual = 0.01084575535632532, Final residual = 0.000935106949750399, No Iterations 13
smoothSolver:  Solving for Uy, Initial residual = 0.03900455278634658, Final residual = 0.003330873623209433, No Iterations 13
smoothSolver:  Solving for Uz, Initial residual = 0.04254079156359461, Final residual = 0.004108199085071419, No Iterations 12
[INFO] MomentumPredictor: 877.378 [ms]
[INFO] MatrixAssemblyPI: 170.548 [ms]
[INFO] MatrixAssemblyPII: 84.90000000000001 [ms]
[OGL LOG][Proc: 0]: global_index_init: 0.037 [ms]
[OGL LOG][Proc: 0]p_local_coeffs: call_update: 0 [ms]
[OGL LOG][Proc: 0]p_non_local_coeffs: call_update: 0 [ms]
[OGL LOG][Proc: 0]p: update_local_matrix_data: 21.355 [ms]
[OGL LOG][Proc: 0]p: update_non_local_matrix_data: 0.091 [ms]
[OGL LOG][Proc: 0]p_matrix: call_update: 5.722 [ms]
[OGL LOG][Proc: 0]p_rhs: call_update: 4.699 [ms]
[OGL LOG][Preconditioner.H:121] Generate preconditioner BJ MaxBlockSize 1
[OGL LOG][Proc: 0]p: init_precond: 0.585 [ms]
[OGL LOG][StoppingCriterion.H:373] Creating stopping criterion with minIter 240 frequency 6
[OGL LOG][Proc: 0]p: generate_solver: 0.002 [ms]
[OGL LOG][Proc: 0]p: solve: 335.047 [ms]
[OGL LOG][Proc: 0]p: copy_x_back: 2.543 [ms]
[OGL LOG][lduLduBase.H:336] 
Statistics:
	Time per iteration: 1183 [mu s]
	Time per residual norm calculation: 267.000000 [mu s]
	Time per iteration and DOF: 0.093783 [ns]
	Retrieve results bandwidth 2.985000 [GByte/s]
[OGL LOG][Proc: 0]p: solve_multi_gpu: 349.353 [ms]
BJhipGKOCG:  Solving for p, Initial residual = 0.04326776899229125, Final residual = 0.0004179269740906607, No Iterations 283
[INFO] SolveP: 375.921 [ms]
time step continuity errors : sum local = 0.003400014113559882, global = -0.0004572837961141346, cumulative = 0.002298092065206611
[INFO] postSolveP: 45.112 [ms]
smoothSolver:  Solving for nuTilda, Initial residual = 0.02660326748755268, Final residual = 0.002377988276167343, No Iterations 3
[INFO] TimeStep: 3291.981 [ms]
ExecutionTime = 102.63 s  ClockTime = 101 s

Time = 20

velocityDampingConstraint velocityDamping damped 0 (0%) of cells, with max limit 300
[INFO] MatrixAssemblyU: 1076.139 [ms]
smoothSolver:  Solving for Ux, Initial residual = 0.01067973524955738, Final residual = 0.0009157694335678133, No Iterations 13
smoothSolver:  Solving for Uy, Initial residual = 0.03939741036498359, Final residual = 0.003934442659052888, No Iterations 12
smoothSolver:  Solving for Uz, Initial residual = 0.04313705415375146, Final residual = 0.004141359896412929, No Iterations 12
[INFO] MomentumPredictor: 856.899 [ms]
[INFO] MatrixAssemblyPI: 170.311 [ms]
[INFO] MatrixAssemblyPII: 85.176 [ms]
[OGL LOG][Proc: 0]: global_index_init: 0.033 [ms]
[OGL LOG][Proc: 0]p_local_coeffs: call_update: 0 [ms]
[OGL LOG][Proc: 0]p_non_local_coeffs: call_update: 0 [ms]
[OGL LOG][Proc: 0]p: update_local_matrix_data: 21.844 [ms]
[OGL LOG][Proc: 0]p: update_non_local_matrix_data: 0.111 [ms]
[OGL LOG][Proc: 0]p_matrix: call_update: 6.175 [ms]
[OGL LOG][Proc: 0]p_rhs: call_update: 2.715 [ms]
[OGL LOG][Preconditioner.H:121] Generate preconditioner BJ MaxBlockSize 1
[OGL LOG][Proc: 0]p: init_precond: 0.606 [ms]
[OGL LOG][StoppingCriterion.H:373] Creating stopping criterion with minIter 169 frequency 5
[OGL LOG][Proc: 0]p: generate_solver: 0.002 [ms]
[OGL LOG][Proc: 0]p: solve: 815.077 [ms]
[OGL LOG][Proc: 0]p: copy_x_back: 2.532 [ms]
[OGL LOG][lduLduBase.H:336] 
Statistics:
	Time per iteration: 1122 [mu s]
	Time per residual norm calculation: 264.000000 [mu s]
	Time per iteration and DOF: 0.088947 [ns]
	Retrieve results bandwidth 2.998000 [GByte/s]
[OGL LOG][Proc: 0]p: solve_multi_gpu: 827.8720000000001 [ms]
BJhipGKOCG:  Solving for p, Initial residual = 0.04342254374721985, Final residual = 0.0004309616197197713, No Iterations 726
[INFO] SolveP: 854.9160000000001 [ms]
time step continuity errors : sum local = 0.003519330643483472, global = -0.0003056676076043429, cumulative = 0.001992424457602268
[INFO] postSolveP: 44.967 [ms]
smoothSolver:  Solving for nuTilda, Initial residual = 0.04202915356560703, Final residual = 0.004061159609695493, No Iterations 2
[INFO] TimeStep: 3725.791 [ms]
ExecutionTime = 107.36 s  ClockTime = 106 s

Time = 21

velocityDampingConstraint velocityDamping damped 0 (0%) of cells, with max limit 300
[INFO] MatrixAssemblyU: 1074.957 [ms]
smoothSolver:  Solving for Ux, Initial residual = 0.0105642427497735, Final residual = 0.0009063574976449519, No Iterations 13
smoothSolver:  Solving for Uy, Initial residual = 0.04011828475757186, Final residual = 0.0039772502168651, No Iterations 12
smoothSolver:  Solving for Uz, Initial residual = 0.04360447102780394, Final residual = 0.004138670196509413, No Iterations 12
[INFO] MomentumPredictor: 853.274 [ms]
[INFO] MatrixAssemblyPI: 170.759 [ms]
[INFO] MatrixAssemblyPII: 85.34999999999999 [ms]
[OGL LOG][Proc: 0]: global_index_init: 0.036 [ms]
[OGL LOG][Proc: 0]p_local_coeffs: call_update: 0 [ms]
[OGL LOG][Proc: 0]p_non_local_coeffs: call_update: 0 [ms]
[OGL LOG][Proc: 0]p: update_local_matrix_data: 21.911 [ms]
[OGL LOG][Proc: 0]p: update_non_local_matrix_data: 0.095 [ms]
[OGL LOG][Proc: 0]p_matrix: call_update: 8.032 [ms]
[OGL LOG][Proc: 0]p_rhs: call_update: 3.034 [ms]
[OGL LOG][Preconditioner.H:121] Generate preconditioner BJ MaxBlockSize 1
[OGL LOG][Proc: 0]p: init_precond: 0.532 [ms]
[OGL LOG][StoppingCriterion.H:373] Creating stopping criterion with minIter 435 frequency 8
[OGL LOG][Proc: 0]p: generate_solver: 0.002 [ms]
[OGL LOG][Proc: 0]p: solve: 503.891 [ms]
[OGL LOG][Proc: 0]p: copy_x_back: 2.587 [ms]
[OGL LOG][lduLduBase.H:336] 
Statistics:
	Time per iteration: 1142 [mu s]
	Time per residual norm calculation: 290.000000 [mu s]
	Time per iteration and DOF: 0.090532 [ns]
	Retrieve results bandwidth 2.934000 [GByte/s]
[OGL LOG][Proc: 0]p: solve_multi_gpu: 518.864 [ms]
BJhipGKOCG:  Solving for p, Initial residual = 0.04420080347657815, Final residual = 0.000154912603200345, No Iterations 441
[INFO] SolveP: 546.023 [ms]
time step continuity errors : sum local = 0.00126006961251372, global = 0.0002653915461603768, cumulative = 0.002257816003762644
[INFO] postSolveP: 45.039 [ms]
smoothSolver:  Solving for nuTilda, Initial residual = 0.02493243663329784, Final residual = 0.002231118463016682, No Iterations 3
[INFO] TimeStep: 3429.504 [ms]
ExecutionTime = 111.72 s  ClockTime = 110 s

Time = 22

velocityDampingConstraint velocityDamping damped 0 (0%) of cells, with max limit 300
[INFO] MatrixAssemblyU: 1077.908 [ms]
smoothSolver:  Solving for Ux, Initial residual = 0.01050594672912201, Final residual = 0.001046915857773799, No Iterations 12
smoothSolver:  Solving for Uy, Initial residual = 0.04064088603567174, Final residual = 0.003998089672467019, No Iterations 12
smoothSolver:  Solving for Uz, Initial residual = 0.04334991324539756, Final residual = 0.004090764691382542, No Iterations 12
[INFO] MomentumPredictor: 837.961 [ms]
[INFO] MatrixAssemblyPI: 172.578 [ms]
[INFO] MatrixAssemblyPII: 86.191 [ms]
[OGL LOG][Proc: 0]: global_index_init: 0.06900000000000001 [ms]
[OGL LOG][Proc: 0]p_local_coeffs: call_update: 0 [ms]
[OGL LOG][Proc: 0]p_non_local_coeffs: call_update: 0 [ms]
[OGL LOG][Proc: 0]p: update_local_matrix_data: 21.774 [ms]
[OGL LOG][Proc: 0]p: update_non_local_matrix_data: 0.08799999999999999 [ms]
[OGL LOG][Proc: 0]p_matrix: call_update: 9.192 [ms]
[OGL LOG][Proc: 0]p_rhs: call_update: 1.65 [ms]
[OGL LOG][Preconditioner.H:121] Generate preconditioner BJ MaxBlockSize 1
[OGL LOG][Proc: 0]p: init_precond: 0.58 [ms]
[OGL LOG][StoppingCriterion.H:373] Creating stopping criterion with minIter 264 frequency 7
[OGL LOG][Proc: 0]p: generate_solver: 0.002 [ms]
[OGL LOG][Proc: 0]p: solve: 394.838 [ms]
[OGL LOG][Proc: 0]p: copy_x_back: 2.531 [ms]
[OGL LOG][lduLduBase.H:336] 
Statistics:
	Time per iteration: 1196 [mu s]
	Time per residual norm calculation: 257.000000 [mu s]
	Time per iteration and DOF: 0.094813 [ns]
	Retrieve results bandwidth 2.999000 [GByte/s]
[OGL LOG][Proc: 0]p: solve_multi_gpu: 409.571 [ms]
BJhipGKOCG:  Solving for p, Initial residual = 0.04416806431741382, Final residual = 0.0004359610600578022, No Iterations 330
[INFO] SolveP: 436.443 [ms]
time step continuity errors : sum local = 0.003576479173788115, global = 0.0005823141126671255, cumulative = 0.00284013011642977
[INFO] postSolveP: 44.966 [ms]
smoothSolver:  Solving for nuTilda, Initial residual = 0.03814005753000686, Final residual = 0.002025761003608873, No Iterations 3
[INFO] TimeStep: 3309.562 [ms]
ExecutionTime = 115.94 s  ClockTime = 114 s

Time = 23

velocityDampingConstraint velocityDamping damped 0 (0%) of cells, with max limit 300
[INFO] MatrixAssemblyU: 1077.01 [ms]
smoothSolver:  Solving for Ux, Initial residual = 0.01038229871501476, Final residual = 0.0008857057527511669, No Iterations 13
smoothSolver:  Solving for Uy, Initial residual = 0.04113882767125026, Final residual = 0.003994547386089686, No Iterations 12
smoothSolver:  Solving for Uz, Initial residual = 0.0429231112910634, Final residual = 0.004009234819581942, No Iterations 12
[INFO] MomentumPredictor: 859.423 [ms]
[INFO] MatrixAssemblyPI: 171.068 [ms]
[INFO] MatrixAssemblyPII: 85.941 [ms]
[OGL LOG][Proc: 0]: global_index_init: 0.035 [ms]
[OGL LOG][Proc: 0]p_local_coeffs: call_update: 0 [ms]
[OGL LOG][Proc: 0]p_non_local_coeffs: call_update: 0 [ms]
[OGL LOG][Proc: 0]p: update_local_matrix_data: 22.147 [ms]
[OGL LOG][Proc: 0]p: update_non_local_matrix_data: 0.112 [ms]
[OGL LOG][Proc: 0]p_matrix: call_update: 5.86 [ms]
[OGL LOG][Proc: 0]p_rhs: call_update: 2.489 [ms]
[OGL LOG][Preconditioner.H:121] Generate preconditioner BJ MaxBlockSize 1
[OGL LOG][Proc: 0]p: init_precond: 0.5740000000000001 [ms]
[OGL LOG][StoppingCriterion.H:373] Creating stopping criterion with minIter 198 frequency 5
[OGL LOG][Proc: 0]p: generate_solver: 0.003 [ms]
[OGL LOG][Proc: 0]p: solve: 873.018 [ms]
[OGL LOG][Proc: 0]p: copy_x_back: 2.518 [ms]
[OGL LOG][lduLduBase.H:336] 
Statistics:
	Time per iteration: 1132 [mu s]
	Time per residual norm calculation: 263.000000 [mu s]
	Time per iteration and DOF: 0.089740 [ns]
	Retrieve results bandwidth 3.015000 [GByte/s]
[OGL LOG][Proc: 0]p: solve_multi_gpu: 885.225 [ms]
BJhipGKOCG:  Solving for p, Initial residual = 0.04389887067747542, Final residual = 0.0004290254813790762, No Iterations 771
[INFO] SolveP: 912.604 [ms]
time step continuity errors : sum local = 0.003571749906722896, global = -3.710319262664156e-05, cumulative = 0.002803026923803128
[INFO] postSolveP: 45.15 [ms]
smoothSolver:  Solving for nuTilda, Initial residual = 0.02319704241190202, Final residual = 0.002097419221545013, No Iterations 3
[INFO] TimeStep: 3805.595 [ms]
ExecutionTime = 120.75 s  ClockTime = 119 s

Time = 24

velocityDampingConstraint velocityDamping damped 0 (0%) of cells, with max limit 300
[INFO] MatrixAssemblyU: 1073.984 [ms]
smoothSolver:  Solving for Ux, Initial residual = 0.01040895115191239, Final residual = 0.001032026664746937, No Iterations 12
smoothSolver:  Solving for Uy, Initial residual = 0.0420985580576207, Final residual = 0.004037967904579368, No Iterations 12
smoothSolver:  Solving for Uz, Initial residual = 0.0426827788562071, Final residual = 0.003934792587550118, No Iterations 12
[INFO] MomentumPredictor: 839.5549999999999 [ms]
[INFO] MatrixAssemblyPI: 170.706 [ms]
[INFO] MatrixAssemblyPII: 86.004 [ms]
[OGL LOG][Proc: 0]: global_index_init: 0.048 [ms]
[OGL LOG][Proc: 0]p_local_coeffs: call_update: 0 [ms]
[OGL LOG][Proc: 0]p_non_local_coeffs: call_update: 0 [ms]
[OGL LOG][Proc: 0]p: update_local_matrix_data: 21.542 [ms]
[OGL LOG][Proc: 0]p: update_non_local_matrix_data: 0.089 [ms]
[OGL LOG][Proc: 0]p_matrix: call_update: 5.724 [ms]
[OGL LOG][Proc: 0]p_rhs: call_update: 3.989 [ms]
[OGL LOG][Preconditioner.H:121] Generate preconditioner BJ MaxBlockSize 1
[OGL LOG][Proc: 0]p: init_precond: 0.58 [ms]
[OGL LOG][StoppingCriterion.H:373] Creating stopping criterion with minIter 462 frequency 8
[OGL LOG][Proc: 0]p: generate_solver: 0.002 [ms]
[OGL LOG][Proc: 0]p: solve: 515.4160000000001 [ms]
[OGL LOG][Proc: 0]p: copy_x_back: 2.551 [ms]
[OGL LOG][lduLduBase.H:336] 
Statistics:
	Time per iteration: 1108 [mu s]
	Time per residual norm calculation: 281.000000 [mu s]
	Time per iteration and DOF: 0.087837 [ns]
	Retrieve results bandwidth 2.976000 [GByte/s]
[OGL LOG][Proc: 0]p: solve_multi_gpu: 529.038 [ms]
BJhipGKOCG:  Solving for p, Initial residual = 0.04214016705343071, Final residual = 9.688176013918754e-05, No Iterations 465
[INFO] SolveP: 555.827 [ms]
time step continuity errors : sum local = 0.0008457018146521761, global = -6.893756937413225e-05, cumulative = 0.002734089354428996
[INFO] postSolveP: 45.034 [ms]
smoothSolver:  Solving for nuTilda, Initial residual = 0.03462072906722512, Final residual = 0.001915131712390783, No Iterations 3
[INFO] TimeStep: 3425.628 [ms]
ExecutionTime = 125.11 s  ClockTime = 123 s

Time = 25

velocityDampingConstraint velocityDamping damped 0 (0%) of cells, with max limit 300
[INFO] MatrixAssemblyU: 1073.613 [ms]
smoothSolver:  Solving for Ux, Initial residual = 0.01029745719266362, Final residual = 0.0008813582369039886, No Iterations 13
smoothSolver:  Solving for Uy, Initial residual = 0.04273683124235809, Final residual = 0.004130215540377223, No Iterations 12
smoothSolver:  Solving for Uz, Initial residual = 0.04220761716024161, Final residual = 0.00389782739802144, No Iterations 12
[INFO] MomentumPredictor: 864.9 [ms]
[INFO] MatrixAssemblyPI: 170.69 [ms]
[INFO] MatrixAssemblyPII: 84.874 [ms]
[OGL LOG][Proc: 0]: global_index_init: 0.105 [ms]
[OGL LOG][Proc: 0]p_local_coeffs: call_update: 0 [ms]
[OGL LOG][Proc: 0]p_non_local_coeffs: call_update: 0 [ms]
[OGL LOG][Proc: 0]p: update_local_matrix_data: 21.819 [ms]
[OGL LOG][Proc: 0]p: update_non_local_matrix_data: 0.113 [ms]
[OGL LOG][Proc: 0]p_matrix: call_update: 5.684 [ms]
[OGL LOG][Proc: 0]p_rhs: call_update: 4.045 [ms]
[OGL LOG][Preconditioner.H:121] Generate preconditioner BJ MaxBlockSize 1
[OGL LOG][Proc: 0]p: init_precond: 0.578 [ms]
[OGL LOG][StoppingCriterion.H:373] Creating stopping criterion with minIter 279 frequency 7
[OGL LOG][Proc: 0]p: generate_solver: 0.002 [ms]
[OGL LOG][Proc: 0]p: solve: 380.747 [ms]
[OGL LOG][Proc: 0]p: copy_x_back: 2.756 [ms]
[OGL LOG][lduLduBase.H:336] 
Statistics:
	Time per iteration: 1178 [mu s]
	Time per residual norm calculation: 264.000000 [mu s]
	Time per iteration and DOF: 0.093386 [ns]
	Retrieve results bandwidth 2.754000 [GByte/s]
[OGL LOG][Proc: 0]p: solve_multi_gpu: 394.594 [ms]
BJhipGKOCG:  Solving for p, Initial residual = 0.0418514689079701, Final residual = 0.0003935874966047867, No Iterations 323
[INFO] SolveP: 421.386 [ms]
time step continuity errors : sum local = 0.003463062821984477, global = -0.0001433366895526972, cumulative = 0.002590752664876299
[INFO] postSolveP: 45.131 [ms]
smoothSolver:  Solving for nuTilda, Initial residual = 0.02138090946713269, Final residual = 0.001964304236494943, No Iterations 3
[INFO] TimeStep: 3313.773 [ms]
ExecutionTime = 129.34 s  ClockTime = 127 s

Time = 26

velocityDampingConstraint velocityDamping damped 0 (0%) of cells, with max limit 300
[INFO] MatrixAssemblyU: 1073.895 [ms]
smoothSolver:  Solving for Ux, Initial residual = 0.01039316511827351, Final residual = 0.001034990907433277, No Iterations 12
smoothSolver:  Solving for Uy, Initial residual = 0.04367783337792885, Final residual = 0.004287280316391102, No Iterations 12
smoothSolver:  Solving for Uz, Initial residual = 0.04231502459867294, Final residual = 0.003947870979690112, No Iterations 12
[INFO] MomentumPredictor: 835.285 [ms]
[INFO] MatrixAssemblyPI: 171.539 [ms]
[INFO] MatrixAssemblyPII: 85.212 [ms]
[OGL LOG][Proc: 0]: global_index_init: 0.031 [ms]
[OGL LOG][Proc: 0]p_local_coeffs: call_update: 0 [ms]
[OGL LOG][Proc: 0]p_non_local_coeffs: call_update: 0 [ms]
[OGL LOG][Proc: 0]p: update_local_matrix_data: 21.759 [ms]
[OGL LOG][Proc: 0]p: update_non_local_matrix_data: 0.096 [ms]
[OGL LOG][Proc: 0]p_matrix: call_update: 5.918 [ms]
[OGL LOG][Proc: 0]p_rhs: call_update: 3.742 [ms]
[OGL LOG][Preconditioner.H:121] Generate preconditioner BJ MaxBlockSize 1
[OGL LOG][Proc: 0]p: init_precond: 0.611 [ms]
[OGL LOG][StoppingCriterion.H:373] Creating stopping criterion with minIter 193 frequency 5
[OGL LOG][Proc: 0]p: generate_solver: 0.002 [ms]
[OGL LOG][Proc: 0]p: solve: 400.221 [ms]
[OGL LOG][Proc: 0]p: copy_x_back: 2.75 [ms]
[OGL LOG][lduLduBase.H:336] 
Statistics:
	Time per iteration: 1173 [mu s]
	Time per residual norm calculation: 264.000000 [mu s]
	Time per iteration and DOF: 0.092990 [ns]
	Retrieve results bandwidth 2.760000 [GByte/s]
[OGL LOG][Proc: 0]p: solve_multi_gpu: 414.044 [ms]
BJhipGKOCG:  Solving for p, Initial residual = 0.04173239974064678, Final residual = 0.0004148769718355628, No Iterations 341
[INFO] SolveP: 441.119 [ms]
time step continuity errors : sum local = 0.003677529282937333, global = -9.50619671396676e-05, cumulative = 0.002495690697736632
[INFO] postSolveP: 44.974 [ms]
smoothSolver:  Solving for nuTilda, Initial residual = 0.03164518666053558, Final residual = 0.001808697182871476, No Iterations 3
[INFO] TimeStep: 3306.609 [ms]
ExecutionTime = 133.56 s  ClockTime = 131 s

Time = 27

velocityDampingConstraint velocityDamping damped 0 (0%) of cells, with max limit 300
[INFO] MatrixAssemblyU: 1072.935 [ms]
smoothSolver:  Solving for Ux, Initial residual = 0.01039836900116557, Final residual = 0.001037039937376862, No Iterations 12
smoothSolver:  Solving for Uy, Initial residual = 0.04473206205744135, Final residual = 0.004450532669348268, No Iterations 12
smoothSolver:  Solving for Uz, Initial residual = 0.04256941763278515, Final residual = 0.004020158596938211, No Iterations 12
[INFO] MomentumPredictor: 841.725 [ms]
[INFO] MatrixAssemblyPI: 171.184 [ms]
[INFO] MatrixAssemblyPII: 85.087 [ms]
[OGL LOG][Proc: 0]: global_index_init: 0.034 [ms]
[OGL LOG][Proc: 0]p_local_coeffs: call_update: 0 [ms]
[OGL LOG][Proc: 0]p_non_local_coeffs: call_update: 0 [ms]
[OGL LOG][Proc: 0]p: update_local_matrix_data: 21.862 [ms]
[OGL LOG][Proc: 0]p: update_non_local_matrix_data: 0.113 [ms]
[OGL LOG][Proc: 0]p_matrix: call_update: 5.962 [ms]
[OGL LOG][Proc: 0]p_rhs: call_update: 3.352 [ms]
[OGL LOG][Preconditioner.H:121] Generate preconditioner BJ MaxBlockSize 1
[OGL LOG][Proc: 0]p: init_precond: 0.593 [ms]
[OGL LOG][StoppingCriterion.H:373] Creating stopping criterion with minIter 204 frequency 5
[OGL LOG][Proc: 0]p: generate_solver: 0.002 [ms]
[OGL LOG][Proc: 0]p: solve: 406.682 [ms]
[OGL LOG][Proc: 0]p: copy_x_back: 2.659 [ms]
[OGL LOG][lduLduBase.H:336] 
Statistics:
	Time per iteration: 1175 [mu s]
	Time per residual norm calculation: 260.000000 [mu s]
	Time per iteration and DOF: 0.093148 [ns]
	Retrieve results bandwidth 2.855000 [GByte/s]
[OGL LOG][Proc: 0]p: solve_multi_gpu: 420.066 [ms]
BJhipGKOCG:  Solving for p, Initial residual = 0.04202062080849846, Final residual = 0.0004060666314990402, No Iterations 346
[INFO] SolveP: 447.025 [ms]
time step continuity errors : sum local = 0.003643028890795769, global = -4.010520241102095e-05, cumulative = 0.002455585495325611
[INFO] postSolveP: 45.2 [ms]
smoothSolver:  Solving for nuTilda, Initial residual = 0.01979403181646183, Final residual = 0.001837659288045075, No Iterations 3
[INFO] TimeStep: 3319.349 [ms]
ExecutionTime = 137.79 s  ClockTime = 135 s

Time = 28

velocityDampingConstraint velocityDamping damped 0 (0%) of cells, with max limit 300
[INFO] MatrixAssemblyU: 1073.232 [ms]
smoothSolver:  Solving for Ux, Initial residual = 0.01054377917356123, Final residual = 0.001040672787429804, No Iterations 12
smoothSolver:  Solving for Uy, Initial residual = 0.04609485179224976, Final residual = 0.003949716609936557, No Iterations 13
smoothSolver:  Solving for Uz, Initial residual = 0.04355256048940017, Final residual = 0.004131010689484011, No Iterations 12
[INFO] MomentumPredictor: 857.157 [ms]
[INFO] MatrixAssemblyPI: 170.809 [ms]
[INFO] MatrixAssemblyPII: 84.82599999999999 [ms]
[OGL LOG][Proc: 0]: global_index_init: 0.033 [ms]
[OGL LOG][Proc: 0]p_local_coeffs: call_update: 0 [ms]
[OGL LOG][Proc: 0]p_non_local_coeffs: call_update: 0 [ms]
[OGL LOG][Proc: 0]p: update_local_matrix_data: 21.773 [ms]
[OGL LOG][Proc: 0]p: update_non_local_matrix_data: 0.089 [ms]
[OGL LOG][Proc: 0]p_matrix: call_update: 11.743 [ms]
[OGL LOG][Proc: 0]p_rhs: call_update: 1.154 [ms]
[OGL LOG][Preconditioner.H:121] Generate preconditioner BJ MaxBlockSize 1
[OGL LOG][Proc: 0]p: init_precond: 0.547 [ms]
[OGL LOG][StoppingCriterion.H:373] Creating stopping criterion with minIter 207 frequency 5
[OGL LOG][Proc: 0]p: generate_solver: 0.002 [ms]
[OGL LOG][Proc: 0]p: solve: 380.895 [ms]
[OGL LOG][Proc: 0]p: copy_x_back: 2.739 [ms]
[OGL LOG][lduLduBase.H:336] 
Statistics:
	Time per iteration: 1168 [mu s]
	Time per residual norm calculation: 260.000000 [mu s]
	Time per iteration and DOF: 0.092594 [ns]
	Retrieve results bandwidth 2.772000 [GByte/s]
[OGL LOG][Proc: 0]p: solve_multi_gpu: 397.887 [ms]
BJhipGKOCG:  Solving for p, Initial residual = 0.04299216692614966, Final residual = 0.0004166974014758367, No Iterations 326
[INFO] SolveP: 424.779 [ms]
time step continuity errors : sum local = 0.003782550792955108, global = 6.769987012880128e-05, cumulative = 0.002523285365454412
[INFO] postSolveP: 44.95 [ms]
smoothSolver:  Solving for nuTilda, Initial residual = 0.02910291161936123, Final residual = 0.001701463753039604, No Iterations 3
[INFO] TimeStep: 3310.127 [ms]
ExecutionTime = 142.01 s  ClockTime = 140 s

Time = 29

velocityDampingConstraint velocityDamping damped 0 (0%) of cells, with max limit 300
[INFO] MatrixAssemblyU: 1073.615 [ms]
smoothSolver:  Solving for Ux, Initial residual = 0.01058420591224189, Final residual = 0.001042660604987852, No Iterations 12
smoothSolver:  Solving for Uy, Initial residual = 0.04764964904656712, Final residual = 0.004087821116719311, No Iterations 13
smoothSolver:  Solving for Uz, Initial residual = 0.04495937038538493, Final residual = 0.004272276178886767, No Iterations 12
[INFO] MomentumPredictor: 858.5359999999999 [ms]
[INFO] MatrixAssemblyPI: 170.608 [ms]
[INFO] MatrixAssemblyPII: 85.43000000000001 [ms]
[OGL LOG][Proc: 0]: global_index_init: 0.034 [ms]
[OGL LOG][Proc: 0]p_local_coeffs: call_update: 0 [ms]
[OGL LOG][Proc: 0]p_non_local_coeffs: call_update: 0 [ms]
[OGL LOG][Proc: 0]p: update_local_matrix_data: 21.354 [ms]
[OGL LOG][Proc: 0]p: update_non_local_matrix_data: 0.08600000000000001 [ms]
[OGL LOG][Proc: 0]p_matrix: call_update: 6.331 [ms]
[OGL LOG][Proc: 0]p_rhs: call_update: 5.096 [ms]
[OGL LOG][Preconditioner.H:121] Generate preconditioner BJ MaxBlockSize 1
[OGL LOG][Proc: 0]p: init_precond: 0.59 [ms]
[OGL LOG][StoppingCriterion.H:373] Creating stopping criterion with minIter 195 frequency 5
[OGL LOG][Proc: 0]p: generate_solver: 0.002 [ms]
[OGL LOG][Proc: 0]p: solve: 386.03 [ms]
[OGL LOG][Proc: 0]p: copy_x_back: 2.578 [ms]
[OGL LOG][lduLduBase.H:336] 
Statistics:
	Time per iteration: 1184 [mu s]
	Time per residual norm calculation: 263.000000 [mu s]
	Time per iteration and DOF: 0.093862 [ns]
	Retrieve results bandwidth 2.945000 [GByte/s]
[OGL LOG][Proc: 0]p: solve_multi_gpu: 401.435 [ms]
BJhipGKOCG:  Solving for p, Initial residual = 0.04399209733556146, Final residual = 0.0004267285942175081, No Iterations 326
[INFO] SolveP: 427.905 [ms]
time step continuity errors : sum local = 0.003913736099571697, global = 0.0002270357509024282, cumulative = 0.00275032111635684
[INFO] postSolveP: 45.082 [ms]
smoothSolver:  Solving for nuTilda, Initial residual = 0.01834816588953916, Final residual = 0.00171347087845881, No Iterations 3
[INFO] TimeStep: 3314.002 [ms]
ExecutionTime = 146.22 s  ClockTime = 144 s

Time = 30

velocityDampingConstraint velocityDamping damped 0 (0%) of cells, with max limit 300
[INFO] MatrixAssemblyU: 1074.012 [ms]
smoothSolver:  Solving for Ux, Initial residual = 0.01078485170204161, Final residual = 0.001048714869996052, No Iterations 12
smoothSolver:  Solving for Uy, Initial residual = 0.04974314489804248, Final residual = 0.004236815119747462, No Iterations 13
smoothSolver:  Solving for Uz, Initial residual = 0.04657652014498518, Final residual = 0.004409102029105123, No Iterations 12
[INFO] MomentumPredictor: 858.4349999999999 [ms]
[INFO] MatrixAssemblyPI: 170.886 [ms]
[INFO] MatrixAssemblyPII: 84.66200000000001 [ms]
[OGL LOG][Proc: 0]: global_index_init: 0.033 [ms]
[OGL LOG][Proc: 0]p_local_coeffs: call_update: 0 [ms]
[OGL LOG][Proc: 0]p_non_local_coeffs: call_update: 0 [ms]
[OGL LOG][Proc: 0]p: update_local_matrix_data: 21.705 [ms]
[OGL LOG][Proc: 0]p: update_non_local_matrix_data: 0.08600000000000001 [ms]
[OGL LOG][Proc: 0]p_matrix: call_update: 5.984 [ms]
[OGL LOG][Proc: 0]p_rhs: call_update: 4.531 [ms]
[OGL LOG][Preconditioner.H:121] Generate preconditioner BJ MaxBlockSize 1
[OGL LOG][Proc: 0]p: init_precond: 0.592 [ms]
[OGL LOG][StoppingCriterion.H:373] Creating stopping criterion with minIter 195 frequency 5
[OGL LOG][Proc: 0]p: generate_solver: 0.007 [ms]
[OGL LOG][Proc: 0]p: solve: 310.833 [ms]
[OGL LOG][Proc: 0]p: copy_x_back: 2.73 [ms]
[OGL LOG][lduLduBase.H:336] 
Statistics:
	Time per iteration: 1190 [mu s]
	Time per residual norm calculation: 265.000000 [mu s]
	Time per iteration and DOF: 0.094338 [ns]
	Retrieve results bandwidth 2.781000 [GByte/s]
[OGL LOG][Proc: 0]p: solve_multi_gpu: 325.47 [ms]
BJhipGKOCG:  Solving for p, Initial residual = 0.04494781655818903, Final residual = 0.0004347405724065497, No Iterations 261
[INFO] SolveP: 352.336 [ms]
time step continuity errors : sum local = 0.004038584707378147, global = 0.0004171900517975241, cumulative = 0.003167511168154364
[INFO] postSolveP: 45.228 [ms]
smoothSolver:  Solving for nuTilda, Initial residual = 0.02688533953188531, Final residual = 0.001594025006491493, No Iterations 3
[INFO] TimeStep: 3238.188 [ms]
ExecutionTime = 150.36 s  ClockTime = 148 s

Time = 31

velocityDampingConstraint velocityDamping damped 0 (0%) of cells, with max limit 300
[INFO] MatrixAssemblyU: 1072.663 [ms]
smoothSolver:  Solving for Ux, Initial residual = 0.01085299483262674, Final residual = 0.001054844343431556, No Iterations 12
smoothSolver:  Solving for Uy, Initial residual = 0.05203359364503037, Final residual = 0.00517911942856622, No Iterations 12
smoothSolver:  Solving for Uz, Initial residual = 0.04827756535981655, Final residual = 0.004567648196548878, No Iterations 12
[INFO] MomentumPredictor: 838.0119999999999 [ms]
[INFO] MatrixAssemblyPI: 170.121 [ms]
[INFO] MatrixAssemblyPII: 84.831 [ms]
[OGL LOG][Proc: 0]: global_index_init: 0.034 [ms]
[OGL LOG][Proc: 0]p_local_coeffs: call_update: 0 [ms]
[OGL LOG][Proc: 0]p_non_local_coeffs: call_update: 0 [ms]
[OGL LOG][Proc: 0]p: update_local_matrix_data: 22.104 [ms]
[OGL LOG][Proc: 0]p: update_non_local_matrix_data: 0.102 [ms]
[OGL LOG][Proc: 0]p_matrix: call_update: 6.464 [ms]
[OGL LOG][Proc: 0]p_rhs: call_update: 2.174 [ms]
[OGL LOG][Preconditioner.H:121] Generate preconditioner BJ MaxBlockSize 1
[OGL LOG][Proc: 0]p: init_precond: 0.595 [ms]
[OGL LOG][StoppingCriterion.H:373] Creating stopping criterion with minIter 156 frequency 5
[OGL LOG][Proc: 0]p: generate_solver: 0.002 [ms]
[OGL LOG][Proc: 0]p: solve: 316.884 [ms]
[OGL LOG][Proc: 0]p: copy_x_back: 2.781 [ms]
[OGL LOG][lduLduBase.H:336] 
Statistics:
	Time per iteration: 1214 [mu s]
[...]
[INFO] SolveP: 319.834 [ms]
time step continuity errors : sum local = 0.005743765760438345, global = -0.0001997107575920007, cumulative = 0.008472575310275433
[INFO] postSolveP: 45.31 [ms]
smoothSolver:  Solving for nuTilda, Initial residual = 0.01289440530390813, Final residual = 0.001161493262173941, No Iterations 3
[INFO] TimeStep: 3184.139 [ms]
ExecutionTime = 195.57 s  ClockTime = 193 s

Time = 42

velocityDampingConstraint velocityDamping damped 0 (0%) of cells, with max limit 300
[INFO] MatrixAssemblyU: 1060.395 [ms]
smoothSolver:  Solving for Ux, Initial residual = 0.01211550517191598, Final residual = 0.001202159011516361, No Iterations 12
smoothSolver:  Solving for Uy, Initial residual = 0.07121533020782772, Final residual = 0.006633648696753538, No Iterations 13
smoothSolver:  Solving for Uz, Initial residual = 0.07108089922500523, Final residual = 0.006043942609319715, No Iterations 13
[INFO] MomentumPredictor: 876.942 [ms]
[INFO] MatrixAssemblyPI: 170.872 [ms]
[INFO] MatrixAssemblyPII: 85.026 [ms]
[OGL LOG][Proc: 0]: global_index_init: 0.031 [ms]
[OGL LOG][Proc: 0]p_local_coeffs: call_update: 0 [ms]
[OGL LOG][Proc: 0]p_non_local_coeffs: call_update: 0 [ms]
[OGL LOG][Proc: 0]p: update_local_matrix_data: 21.819 [ms]
[OGL LOG][Proc: 0]p: update_non_local_matrix_data: 0.097 [ms]
[OGL LOG][Proc: 0]p_matrix: call_update: 5.975000000000001 [ms]
[OGL LOG][Proc: 0]p_rhs: call_update: 3.284 [ms]
[OGL LOG][Preconditioner.H:121] Generate preconditioner BJ MaxBlockSize 1
[OGL LOG][Proc: 0]p: init_precond: 0.592 [ms]
[OGL LOG][StoppingCriterion.H:373] Creating stopping criterion with minIter 137 frequency 4
[OGL LOG][Proc: 0]p: generate_solver: 0.003 [ms]
[OGL LOG][Proc: 0]p: solve: 291.713 [ms]
[OGL LOG][Proc: 0]p: copy_x_back: 2.537 [ms]
[OGL LOG][lduLduBase.H:336] 
Statistics:
	Time per iteration: 1251 [mu s]
	Time per residual norm calculation: 269.000000 [mu s]
	Time per iteration and DOF: 0.099173 [ns]
	Retrieve results bandwidth 2.992000 [GByte/s]
[OGL LOG][Proc: 0]p: solve_multi_gpu: 304.912 [ms]
BJhipGKOCG:  Solving for p, Initial residual = 0.05690716389297696, Final residual = 0.0005652374010909379, No Iterations 233
[INFO] SolveP: 331.987 [ms]
time step continuity errors : sum local = 0.005712383085527002, global = -0.0004331865886343041, cumulative = 0.008039388721641129
[INFO] postSolveP: 45.352 [ms]
smoothSolver:  Solving for nuTilda, Initial residual = 0.01853964703364201, Final residual = 0.001113943441398798, No Iterations 3
[INFO] TimeStep: 3218.861 [ms]
ExecutionTime = 199.67 s  ClockTime = 197 s

Time = 43

velocityDampingConstraint velocityDamping damped 0 (0%) of cells, with max limit 300
[INFO] MatrixAssemblyU: 1061.266 [ms]
smoothSolver:  Solving for Ux, Initial residual = 0.01201620775293777, Final residual = 0.001029652377697655, No Iterations 13
smoothSolver:  Solving for Uy, Initial residual = 0.07195464515172578, Final residual = 0.006856521189805028, No Iterations 13
smoothSolver:  Solving for Uz, Initial residual = 0.07074363792729581, Final residual = 0.00612762244741934, No Iterations 13
[INFO] MomentumPredictor: 900.796 [ms]
[INFO] MatrixAssemblyPI: 171.117 [ms]
[INFO] MatrixAssemblyPII: 84.932 [ms]
[OGL LOG][Proc: 0]: global_index_init: 0.033 [ms]
[OGL LOG][Proc: 0]p_local_coeffs: call_update: 0 [ms]
[OGL LOG][Proc: 0]p_non_local_coeffs: call_update: 0 [ms]
[OGL LOG][Proc: 0]p: update_local_matrix_data: 21.891 [ms]
[OGL LOG][Proc: 0]p: update_non_local_matrix_data: 0.08700000000000001 [ms]
[OGL LOG][Proc: 0]p_matrix: call_update: 6.647 [ms]
[OGL LOG][Proc: 0]p_rhs: call_update: 3.062 [ms]
[OGL LOG][Preconditioner.H:121] Generate preconditioner BJ MaxBlockSize 1
[OGL LOG][Proc: 0]p: init_precond: 0.584 [ms]
[OGL LOG][StoppingCriterion.H:373] Creating stopping criterion with minIter 139 frequency 4
[OGL LOG][Proc: 0]p: generate_solver: 0.002 [ms]
[OGL LOG][Proc: 0]p: solve: 288.504 [ms]
[OGL LOG][Proc: 0]p: copy_x_back: 2.58 [ms]
[OGL LOG][lduLduBase.H:336] 
Statistics:
	Time per iteration: 1238 [mu s]
	Time per residual norm calculation: 260.000000 [mu s]
	Time per iteration and DOF: 0.098143 [ns]
	Retrieve results bandwidth 2.942000 [GByte/s]
[OGL LOG][Proc: 0]p: solve_multi_gpu: 302.176 [ms]
BJhipGKOCG:  Solving for p, Initial residual = 0.05619640551749519, Final residual = 0.0005593992369896726, No Iterations 233
[INFO] SolveP: 329.222 [ms]
time step continuity errors : sum local = 0.005637382433909372, global = -0.0006848207173940367, cumulative = 0.007354568004247092
[INFO] postSolveP: 44.922 [ms]
smoothSolver:  Solving for nuTilda, Initial residual = 0.01236172997185602, Final residual = 0.001104495223785232, No Iterations 3
[INFO] TimeStep: 3240.51 [ms]
ExecutionTime = 203.79 s  ClockTime = 201 s

Time = 44

velocityDampingConstraint velocityDamping damped 0 (0%) of cells, with max limit 300
[INFO] MatrixAssemblyU: 1061.243 [ms]
smoothSolver:  Solving for Ux, Initial residual = 0.01202433791220877, Final residual = 0.001037961343603321, No Iterations 13
smoothSolver:  Solving for Uy, Initial residual = 0.07241836962255117, Final residual = 0.007061960784892423, No Iterations 13
smoothSolver:  Solving for Uz, Initial residual = 0.07008428538385271, Final residual = 0.006195642050516506, No Iterations 13
[INFO] MomentumPredictor: 904.227 [ms]
[INFO] MatrixAssemblyPI: 170.423 [ms]
[INFO] MatrixAssemblyPII: 84.977 [ms]
[OGL LOG][Proc: 0]: global_index_init: 0.033 [ms]
[OGL LOG][Proc: 0]p_local_coeffs: call_update: 0 [ms]
[OGL LOG][Proc: 0]p_non_local_coeffs: call_update: 0 [ms]
[OGL LOG][Proc: 0]p: update_local_matrix_data: 21.887 [ms]
[OGL LOG][Proc: 0]p: update_non_local_matrix_data: 0.08400000000000001 [ms]
[OGL LOG][Proc: 0]p_matrix: call_update: 5.682 [ms]
[OGL LOG][Proc: 0]p_rhs: call_update: 5.687 [ms]
[OGL LOG][Preconditioner.H:121] Generate preconditioner BJ MaxBlockSize 1
[OGL LOG][Proc: 0]p: init_precond: 0.533 [ms]
[OGL LOG][StoppingCriterion.H:373] Creating stopping criterion with minIter 139 frequency 4
[OGL LOG][Proc: 0]p: generate_solver: 0.002 [ms]
[OGL LOG][Proc: 0]p: solve: 343.464 [ms]
[OGL LOG][Proc: 0]p: copy_x_back: 2.538 [ms]
[OGL LOG][lduLduBase.H:336] 
Statistics:
	Time per iteration: 1258 [mu s]
	Time per residual norm calculation: 261.000000 [mu s]
	Time per iteration and DOF: 0.099728 [ns]
	Retrieve results bandwidth 2.991000 [GByte/s]
[OGL LOG][Proc: 0]p: solve_multi_gpu: 358.72 [ms]
BJhipGKOCG:  Solving for p, Initial residual = 0.05544152381237107, Final residual = 0.0005527375350420086, No Iterations 273
[INFO] SolveP: 385.673 [ms]
time step continuity errors : sum local = 0.005528796874523554, global = -0.0009467135036333822, cumulative = 0.006407854500613709
[INFO] postSolveP: 45.959 [ms]
smoothSolver:  Solving for nuTilda, Initial residual = 0.01758520617808517, Final residual = 0.001061033941632431, No Iterations 3
[INFO] TimeStep: 3300.423 [ms]
ExecutionTime = 207.98 s  ClockTime = 205 s

Time = 45

velocityDampingConstraint velocityDamping damped 0 (0%) of cells, with max limit 300
[INFO] MatrixAssemblyU: 1059.583 [ms]
smoothSolver:  Solving for Ux, Initial residual = 0.0118810663618793, Final residual = 0.001046894039573945, No Iterations 13
smoothSolver:  Solving for Uy, Initial residual = 0.0724968237302988, Final residual = 0.007193854291824371, No Iterations 13
smoothSolver:  Solving for Uz, Initial residual = 0.06924326043986688, Final residual = 0.006253183283594821, No Iterations 13
[INFO] MomentumPredictor: 894.6609999999999 [ms]
[INFO] MatrixAssemblyPI: 170.605 [ms]
[INFO] MatrixAssemblyPII: 85.148 [ms]
[OGL LOG][Proc: 0]: global_index_init: 0.03 [ms]
[OGL LOG][Proc: 0]p_local_coeffs: call_update: 0 [ms]
[OGL LOG][Proc: 0]p_non_local_coeffs: call_update: 0 [ms]
[OGL LOG][Proc: 0]p: update_local_matrix_data: 21.504 [ms]
[OGL LOG][Proc: 0]p: update_non_local_matrix_data: 0.089 [ms]
[OGL LOG][Proc: 0]p_matrix: call_update: 5.7 [ms]
[OGL LOG][Proc: 0]p_rhs: call_update: 4.476 [ms]
[OGL LOG][Preconditioner.H:121] Generate preconditioner BJ MaxBlockSize 1
[OGL LOG][Proc: 0]p: init_precond: 0.589 [ms]
[OGL LOG][StoppingCriterion.H:373] Creating stopping criterion with minIter 163 frequency 5
[OGL LOG][Proc: 0]p: generate_solver: 0.002 [ms]
[OGL LOG][Proc: 0]p: solve: 678.3240000000001 [ms]
[OGL LOG][Proc: 0]p: copy_x_back: 2.588 [ms]
[OGL LOG][lduLduBase.H:336] 
Statistics:
	Time per iteration: 1157 [mu s]
	Time per residual norm calculation: 267.000000 [mu s]
	Time per iteration and DOF: 0.091722 [ns]
	Retrieve results bandwidth 2.933000 [GByte/s]
[OGL LOG][Proc: 0]p: solve_multi_gpu: 692.484 [ms]
BJhipGKOCG:  Solving for p, Initial residual = 0.05497390064757863, Final residual = 0.00053405631906786, No Iterations 586
[INFO] SolveP: 719.085 [ms]
time step continuity errors : sum local = 0.005276490696671777, global = -3.636417641600097e-05, cumulative = 0.006371490324197708
[INFO] postSolveP: 45.043 [ms]
smoothSolver:  Solving for nuTilda, Initial residual = 0.01180787098184805, Final residual = 0.001050644772148415, No Iterations 3
[INFO] TimeStep: 3622.164 [ms]
ExecutionTime = 212.55 s  ClockTime = 209 s

Time = 46

velocityDampingConstraint velocityDamping damped 0 (0%) of cells, with max limit 300
[INFO] MatrixAssemblyU: 1059.41 [ms]
smoothSolver:  Solving for Ux, Initial residual = 0.01194808013372398, Final residual = 0.001050974402046028, No Iterations 13
smoothSolver:  Solving for Uy, Initial residual = 0.07266770570044197, Final residual = 0.007241571136266835, No Iterations 13
smoothSolver:  Solving for Uz, Initial residual = 0.06835662474911086, Final residual = 0.006310210716528299, No Iterations 13
[INFO] MomentumPredictor: 896.466 [ms]
[INFO] MatrixAssemblyPI: 170.824 [ms]
[INFO] MatrixAssemblyPII: 84.82899999999999 [ms]
[OGL LOG][Proc: 0]: global_index_init: 0.033 [ms]
[OGL LOG][Proc: 0]p_local_coeffs: call_update: 0 [ms]
[OGL LOG][Proc: 0]p_non_local_coeffs: call_update: 0 [ms]
[OGL LOG][Proc: 0]p: update_local_matrix_data: 21.886 [ms]
[OGL LOG][Proc: 0]p: update_non_local_matrix_data: 0.093 [ms]
[OGL LOG][Proc: 0]p_matrix: call_update: 7.006 [ms]
[OGL LOG][Proc: 0]p_rhs: call_update: 2.181 [ms]
[OGL LOG][Preconditioner.H:121] Generate preconditioner BJ MaxBlockSize 1
[OGL LOG][Proc: 0]p: init_precond: 0.674 [ms]
[OGL LOG][StoppingCriterion.H:373] Creating stopping criterion with minIter 351 frequency 7
[OGL LOG][Proc: 0]p: generate_solver: 0.002 [ms]
[OGL LOG][Proc: 0]p: solve: 405.766 [ms]
[OGL LOG][Proc: 0]p: copy_x_back: 2.545 [ms]
[OGL LOG][lduLduBase.H:336] 
Statistics:
	Time per iteration: 1133 [mu s]
	Time per residual norm calculation: 285.000000 [mu s]
	Time per iteration and DOF: 0.089819 [ns]
	Retrieve results bandwidth 2.983000 [GByte/s]
[OGL LOG][Proc: 0]p: solve_multi_gpu: 418.964 [ms]
BJhipGKOCG:  Solving for p, Initial residual = 0.05628502446656319, Final residual = 0.0003581050398157953, No Iterations 358
[INFO] SolveP: 445.957 [ms]
time step continuity errors : sum local = 0.003384214436669044, global = 0.0005662506065712453, cumulative = 0.006937740930768954
[INFO] postSolveP: 44.814 [ms]
smoothSolver:  Solving for nuTilda, Initial residual = 0.01670207313311773, Final residual = 0.001012726267354712, No Iterations 3
[INFO] TimeStep: 3349.569 [ms]
ExecutionTime = 216.8 s  ClockTime = 214 s

Time = 47

velocityDampingConstraint velocityDamping damped 0 (0%) of cells, with max limit 300
[INFO] MatrixAssemblyU: 1058.509 [ms]
smoothSolver:  Solving for Ux, Initial residual = 0.01162960556022345, Final residual = 0.001053798634627878, No Iterations 13
smoothSolver:  Solving for Uy, Initial residual = 0.07218100313510853, Final residual = 0.006208847590564898, No Iterations 14
smoothSolver:  Solving for Uz, Initial residual = 0.0666591964199678, Final residual = 0.006331648508999701, No Iterations 13
[INFO] MomentumPredictor: 915.252 [ms]
[INFO] MatrixAssemblyPI: 171.046 [ms]
[INFO] MatrixAssemblyPII: 85.063 [ms]
[OGL LOG][Proc: 0]: global_index_init: 0.184 [ms]
[OGL LOG][Proc: 0]p_local_coeffs: call_update: 0 [ms]
[OGL LOG][Proc: 0]p_non_local_coeffs: call_update: 0 [ms]
[OGL LOG][Proc: 0]p: update_local_matrix_data: 21.934 [ms]
[OGL LOG][Proc: 0]p: update_non_local_matrix_data: 0.095 [ms]
[OGL LOG][Proc: 0]p_matrix: call_update: 7.049 [ms]
[OGL LOG][Proc: 0]p_rhs: call_update: 3.242 [ms]
[OGL LOG][Preconditioner.H:121] Generate preconditioner BJ MaxBlockSize 1
[OGL LOG][Proc: 0]p: init_precond: 0.601 [ms]
[OGL LOG][StoppingCriterion.H:373] Creating stopping criterion with minIter 214 frequency 6
[OGL LOG][Proc: 0]p: generate_solver: 0.002 [ms]
[OGL LOG][Proc: 0]p: solve: 377.832 [ms]
[OGL LOG][Proc: 0]p: copy_x_back: 2.572 [ms]
[OGL LOG][lduLduBase.H:336] 
Statistics:
	Time per iteration: 1162 [mu s]
	Time per residual norm calculation: 263.000000 [mu s]
	Time per iteration and DOF: 0.092118 [ns]
	Retrieve results bandwidth 2.952000 [GByte/s]
[OGL LOG][Proc: 0]p: solve_multi_gpu: 392.109 [ms]
BJhipGKOCG:  Solving for p, Initial residual = 0.05511356980622618, Final residual = 0.0005508676357444934, No Iterations 325
[INFO] SolveP: 419.083 [ms]
time step continuity errors : sum local = 0.005204298830071065, global = 0.0008840255359280315, cumulative = 0.007821766466696986
[INFO] postSolveP: 45.205 [ms]
smoothSolver:  Solving for nuTilda, Initial residual = 0.0112876922664114, Final residual = 0.001003316379355442, No Iterations 3
[INFO] TimeStep: 3341.405 [ms]
ExecutionTime = 221.04 s  ClockTime = 218 s

Time = 48

velocityDampingConstraint velocityDamping damped 0 (0%) of cells, with max limit 300
[INFO] MatrixAssemblyU: 1060.517 [ms]
smoothSolver:  Solving for Ux, Initial residual = 0.01156193604011127, Final residual = 0.001060345231041651, No Iterations 13
smoothSolver:  Solving for Uy, Initial residual = 0.07162714857262463, Final residual = 0.006177410291814766, No Iterations 14
smoothSolver:  Solving for Uz, Initial residual = 0.06541296999780127, Final residual = 0.006323931872768061, No Iterations 13
[INFO] MomentumPredictor: 920.849 [ms]
[INFO] MatrixAssemblyPI: 170.49 [ms]
[INFO] MatrixAssemblyPII: 84.871 [ms]
[OGL LOG][Proc: 0]: global_index_init: 0.032 [ms]
[OGL LOG][Proc: 0]p_local_coeffs: call_update: 0 [ms]
[OGL LOG][Proc: 0]p_non_local_coeffs: call_update: 0 [ms]
[OGL LOG][Proc: 0]p: update_local_matrix_data: 22.445 [ms]
[OGL LOG][Proc: 0]p: update_non_local_matrix_data: 0.091 [ms]
[OGL LOG][Proc: 0]p_matrix: call_update: 8.420999999999999 [ms]
[OGL LOG][Proc: 0]p_rhs: call_update: 1.964 [ms]
[OGL LOG][Preconditioner.H:121] Generate preconditioner BJ MaxBlockSize 1
[OGL LOG][Proc: 0]p: init_precond: 0.591 [ms]
[OGL LOG][StoppingCriterion.H:373] Creating stopping criterion with minIter 195 frequency 5
[OGL LOG][Proc: 0]p: generate_solver: 0.002 [ms]
[OGL LOG][Proc: 0]p: solve: 695.293 [ms]
[OGL LOG][Proc: 0]p: copy_x_back: 2.544 [ms]
[OGL LOG][lduLduBase.H:336] 
Statistics:
	Time per iteration: 1137 [mu s]
	Time per residual norm calculation: 263.000000 [mu s]
	Time per iteration and DOF: 0.090136 [ns]
	Retrieve results bandwidth 2.984000 [GByte/s]
[OGL LOG][Proc: 0]p: solve_multi_gpu: 709.63 [ms]
BJhipGKOCG:  Solving for p, Initial residual = 0.05385950171426631, Final residual = 0.0005298798131982443, No Iterations 611
[INFO] SolveP: 737.187 [ms]
time step continuity errors : sum local = 0.005004529429703536, global = -7.508790641674928e-05, cumulative = 0.007746678560280236
[INFO] postSolveP: 44.69 [ms]
smoothSolver:  Solving for nuTilda, Initial residual = 0.01590796713536869, Final residual = 0.0009713239880243891, No Iterations 3
[INFO] TimeStep: 3666.065 [ms]
ExecutionTime = 225.67 s  ClockTime = 222 s

Time = 49

velocityDampingConstraint velocityDamping damped 0 (0%) of cells, with max limit 300
[INFO] MatrixAssemblyU: 1063.644 [ms]
smoothSolver:  Solving for Ux, Initial residual = 0.01135398056454513, Final residual = 0.001064043628951981, No Iterations 13
smoothSolver:  Solving for Uy, Initial residual = 0.07113181957462145, Final residual = 0.006144013435412466, No Iterations 14
smoothSolver:  Solving for Uz, Initial residual = 0.06466469657876016, Final residual = 0.006308335294279748, No Iterations 13
[INFO] MomentumPredictor: 918.686 [ms]
[INFO] MatrixAssemblyPI: 171.071 [ms]
[INFO] MatrixAssemblyPII: 85.419 [ms]
[OGL LOG][Proc: 0]: global_index_init: 0.033 [ms]
[OGL LOG][Proc: 0]p_local_coeffs: call_update: 0 [ms]
[OGL LOG][Proc: 0]p_non_local_coeffs: call_update: 0 [ms]
[OGL LOG][Proc: 0]p: update_local_matrix_data: 21.777 [ms]
[OGL LOG][Proc: 0]p: update_non_local_matrix_data: 0.08799999999999999 [ms]
[OGL LOG][Proc: 0]p_matrix: call_update: 6.224 [ms]
[OGL LOG][Proc: 0]p_rhs: call_update: 3.146 [ms]
[OGL LOG][Preconditioner.H:121] Generate preconditioner BJ MaxBlockSize 1
[OGL LOG][Proc: 0]p: init_precond: 0.602 [ms]
[OGL LOG][StoppingCriterion.H:373] Creating stopping criterion with minIter 366 frequency 7
[OGL LOG][Proc: 0]p: generate_solver: 0.003 [ms]
[OGL LOG][Proc: 0]p: solve: 423.311 [ms]
[OGL LOG][Proc: 0]p: copy_x_back: 2.563 [ms]
[OGL LOG][lduLduBase.H:336] 
Statistics:
	Time per iteration: 1137 [mu s]
	Time per residual norm calculation: 288.000000 [mu s]
	Time per iteration and DOF: 0.090136 [ns]
	Retrieve results bandwidth 2.962000 [GByte/s]
[OGL LOG][Proc: 0]p: solve_multi_gpu: 436.645 [ms]
BJhipGKOCG:  Solving for p, Initial residual = 0.05151163248362024, Final residual = 0.0003653380471174874, No Iterations 372
[INFO] SolveP: 464.544 [ms]
time step continuity errors : sum local = 0.003555002670787502, global = -0.0004756994446315609, cumulative = 0.007270979115648675
[INFO] postSolveP: 45.901 [ms]
smoothSolver:  Solving for nuTilda, Initial residual = 0.01083239527412173, Final residual = 0.0009652336546059594, No Iterations 3
[INFO] TimeStep: 3396.508 [ms]
ExecutionTime = 229.97 s  ClockTime = 227 s

Time = 50

velocityDampingConstraint velocityDamping damped 0 (0%) of cells, with max limit 300
[INFO] MatrixAssemblyU: 1061.785 [ms]
smoothSolver:  Solving for Ux, Initial residual = 0.01139005598472023, Final residual = 0.001067061931090661, No Iterations 13
smoothSolver:  Solving for Uy, Initial residual = 0.06990974620132634, Final residual = 0.0060706919953484, No Iterations 14
smoothSolver:  Solving for Uz, Initial residual = 0.0638077653576728, Final residual = 0.006292706126177478, No Iterations 13
[INFO] MomentumPredictor: 917.4349999999999 [ms]
[INFO] MatrixAssemblyPI: 171.049 [ms]
[INFO] MatrixAssemblyPII: 84.58 [ms]
[OGL LOG][Proc: 0]: global_index_init: 0.246 [ms]
[OGL LOG][Proc: 0]p_local_coeffs: call_update: 0 [ms]
[OGL LOG][Proc: 0]p_non_local_coeffs: call_update: 0 [ms]
[OGL LOG][Proc: 0]p: update_local_matrix_data: 21.8 [ms]
[OGL LOG][Proc: 0]p: update_non_local_matrix_data: 0.092 [ms]
[OGL LOG][Proc: 0]p_matrix: call_update: 8.582000000000001 [ms]
[OGL LOG][Proc: 0]p_rhs: call_update: 5.154 [ms]
[OGL LOG][Preconditioner.H:121] Generate preconditioner BJ MaxBlockSize 1
[OGL LOG][Proc: 0]p: init_precond: 0.662 [ms]
[OGL LOG][StoppingCriterion.H:373] Creating stopping criterion with minIter 223 frequency 7
[OGL LOG][Proc: 0]p: generate_solver: 0.002 [ms]
[OGL LOG][Proc: 0]p: solve: 708.246 [ms]
[OGL LOG][Proc: 0]p: copy_x_back: 2.552 [ms]
[OGL LOG][lduLduBase.H:336] 
Statistics:
	Time per iteration: 1122 [mu s]
	Time per residual norm calculation: 267.000000 [mu s]
	Time per iteration and DOF: 0.088947 [ns]
	Retrieve results bandwidth 2.975000 [GByte/s]
[OGL LOG][Proc: 0]p: solve_multi_gpu: 726.014 [ms]
BJhipGKOCG:  Solving for p, Initial residual = 0.05160267164205, Final residual = 0.0005118227890137282, No Iterations 631
[INFO] SolveP: 752.944 [ms]
time step continuity errors : sum local = 0.004918988915412864, global = -1.200810873937948e-05, cumulative = 0.007258971006909296
[INFO] postSolveP: 44.963 [ms]
smoothSolver:  Solving for nuTilda, Initial residual = 0.01522411566703791, Final residual = 0.0009394639480048583, No Iterations 3
[INFO] TimeStep: 3679.315 [ms]
ExecutionTime = 234.6 s  ClockTime = 231 s

End

Finalising parallel run
