/*---------------------------------------------------------------------------*\
| =========                 |                                                 |
| \\      /  F ield         | OpenFOAM: The Open Source CFD Toolbox           |
|  \\    /   O peration     | Version:  2306                                  |
|   \\  /    A nd           | Website:  www.openfoam.com                      |
|    \\/     M anipulation  |                                                 |
\*---------------------------------------------------------------------------*/
Build  : a6e826bd55-20230630 OPENFOAM=2306 version=v2306
Arch   : "LSB;label=32;scalar=64"
Exec   : icoFoam -parallel -case /tmp/lidDrivenCavity/workspace/6097b8210432dea4ab23ddc1a4392d86/case
Date   : Dec 16 2023
Time   : 16:27:02
Host   : nla-gpu2.ianm.kit.edu
PID    : 179510
I/O    : uncollated
Case   : /tmp/lidDrivenCavity/workspace/6097b8210432dea4ab23ddc1a4392d86/case
nProcs : 32
Hosts  :
(
    (nla-gpu2.ianm.kit.edu 32)
)
Pstream initialized with:
    floatTransfer      : false
    nProcsSimpleSum    : 0
    nonBlockingExchange: 0 (tuning: 0)
    exchange algorithm : -1
    commsType          : nonBlocking
    polling iterations : 0
trapFpe: Floating point exception trapping enabled (FOAM_SIGFPE).
fileModificationChecking : Monitoring run-time modified files using timeStampMaster (fileModificationSkew 5, maxFileModificationPolls 20)
allowSystemOperations : Allowing user-supplied system call operations

// * * * * * * * * * * * * * * * * * * * * * * * * * * * * * * * * * * * * * //
Create time

--> FOAM Warning : 
    From void* Foam::dlLibraryTable::openLibrary(const Foam::fileName&, bool)
    in file db/dynamicLibrary/dlLibraryTable/dlLibraryTable.C at line 188
    Could not load "libpetscFoam.so"
libpetscFoam.so: cannot open shared object file: No such file or directory
Create mesh for time = 0


PISO: Operating solver in PISO mode

Reading transportProperties

Reading field p

Reading field U

Reading/calculating face flux field phi


Starting time loop

Time = 0.000166

Courant Number mean: 8.14055e-18 max: 3.11001e-14
[INFO] MatrixAssemblyU: 243.207 [ms]
DILUPBiCGStab:  Solving for Ux, Initial residual = 1, Final residual = 0.0163135, No Iterations 5
DILUPBiCGStab:  Solving for Uy:  solution singularity
DILUPBiCGStab:  Solving for Uz:  solution singularity
[INFO] MomentumPredictor: 870.896 [ms]
[INFO] MatrixAssemblyPI: 246.805 [ms]
[INFO] AdjustPhi: 13.315 [ms]
[INFO] ConstrainPressure: 0.011 [ms]
[INFO] MatrixAssemblyPII: 70.255 [ms]
nonePCG:  Solving for p, Initial residual = 1, Final residual = 9.97931e-05, No Iterations 2429
[INFO] SolveP: 64701 [ms]
time step continuity errors : sum local = 4.03245e-09, global = 1.34057e-21, cumulative = 1.34057e-21
[INFO] ContinuityError: 31.683 [ms]
[INFO] CorrectBoundary: 0.975 [ms]
[INFO] PISOStep: 65173.5 [ms]
[INFO] MatrixAssemblyPI: 241.808 [ms]
[INFO] AdjustPhi: 17.873 [ms]
[INFO] ConstrainPressure: 0.003 [ms]
[INFO] MatrixAssemblyPII: 72.594 [ms]
nonePCG:  Solving for p, Initial residual = 0.80945, Final residual = 9.98535e-05, No Iterations 2416
[INFO] SolveP: 64173.5 [ms]
time step continuity errors : sum local = 4.92515e-09, global = 2.0635e-22, cumulative = 1.54692e-21
[INFO] ContinuityError: 25.942 [ms]
[INFO] CorrectBoundary: 1.71 [ms]
[INFO] PISOStep: 64615.3 [ms]
[INFO] TimeStep: 130931 [ms]
ExecutionTime = 131.38 s  ClockTime = 132 s

Time = 0.000332

Courant Number mean: 0.0128238 max: 0.426584
[INFO] MatrixAssemblyU: 212.516 [ms]
DILUPBiCGStab:  Solving for Ux, Initial residual = 0.116949, Final residual = 0.00993047, No Iterations 5
DILUPBiCGStab:  Solving for Uy, Initial residual = 0.460127, Final residual = 0.0326302, No Iterations 5
DILUPBiCGStab:  Solving for Uz, Initial residual = 0.988821, Final residual = 0.0765138, No Iterations 5
[INFO] MomentumPredictor: 1659.8 [ms]
[INFO] MatrixAssemblyPI: 241.764 [ms]
[INFO] AdjustPhi: 11.348 [ms]
[INFO] ConstrainPressure: 0.003 [ms]
[INFO] MatrixAssemblyPII: 69.936 [ms]
nonePCG:  Solving for p, Initial residual = 0.881299, Final residual = 9.66348e-05, No Iterations 2380
[INFO] SolveP: 63420.8 [ms]
time step continuity errors : sum local = 9.4103e-09, global = 3.10733e-22, cumulative = 1.85765e-21
[INFO] ContinuityError: 25.887 [ms]
[INFO] CorrectBoundary: 0.844 [ms]
[INFO] PISOStep: 63852.2 [ms]
[INFO] MatrixAssemblyPI: 235.053 [ms]
[INFO] AdjustPhi: 16.406 [ms]
[INFO] ConstrainPressure: 0.003 [ms]
[INFO] MatrixAssemblyPII: 69.939 [ms]
nonePCG:  Solving for p, Initial residual = 0.829027, Final residual = 9.73186e-05, No Iterations 2376
[INFO] SolveP: 63205.2 [ms]
time step continuity errors : sum local = 9.65579e-09, global = 5.23558e-22, cumulative = 2.38121e-21
[INFO] ContinuityError: 26.369 [ms]
[INFO] CorrectBoundary: 1.575 [ms]
[INFO] PISOStep: 63634.1 [ms]
[INFO] TimeStep: 129386 [ms]
ExecutionTime = 260.07 s  ClockTime = 262 s

Time = 0.000498

Courant Number mean: 0.019784 max: 0.492001
[INFO] MatrixAssemblyU: 215.697 [ms]
DILUPBiCGStab:  Solving for Ux, Initial residual = 0.0544453, Final residual = 0.00371398, No Iterations 5
DILUPBiCGStab:  Solving for Uy, Initial residual = 0.226654, Final residual = 0.0167554, No Iterations 5
DILUPBiCGStab:  Solving for Uz, Initial residual = 0.849595, Final residual = 0.054899, No Iterations 5
[INFO] MomentumPredictor: 1653.14 [ms]
[INFO] MatrixAssemblyPI: 241.655 [ms]
[INFO] AdjustPhi: 11.069 [ms]
[INFO] ConstrainPressure: 0.002 [ms]
[INFO] MatrixAssemblyPII: 69.854 [ms]
nonePCG:  Solving for p, Initial residual = 0.914894, Final residual = 9.91341e-05, No Iterations 1153
[INFO] SolveP: 30664.9 [ms]
time step continuity errors : sum local = 1.09573e-08, global = 2.30204e-22, cumulative = 2.61141e-21
[INFO] ContinuityError: 25.316 [ms]
[INFO] CorrectBoundary: 1.146 [ms]
[INFO] PISOStep: 31094.6 [ms]
[INFO] MatrixAssemblyPI: 234.232 [ms]
[INFO] AdjustPhi: 12.594 [ms]
[INFO] ConstrainPressure: 0.003 [ms]
[INFO] MatrixAssemblyPII: 70.414 [ms]
nonePCG:  Solving for p, Initial residual = 0.883114, Final residual = 9.98643e-05, No Iterations 1150
[INFO] SolveP: 30665 [ms]
time step continuity errors : sum local = 1.05559e-08, global = -5.06853e-22, cumulative = 2.10456e-21
[INFO] ContinuityError: 26.799 [ms]
[INFO] CorrectBoundary: 0.814 [ms]
[INFO] PISOStep: 31088.7 [ms]
[INFO] TimeStep: 64079.7 [ms]
ExecutionTime = 323.79 s  ClockTime = 326 s

Time = 0.000664

Courant Number mean: 0.0238679 max: 0.471986
[INFO] MatrixAssemblyU: 214.491 [ms]
DILUPBiCGStab:  Solving for Ux, Initial residual = 0.0385407, Final residual = 0.00298163, No Iterations 5
DILUPBiCGStab:  Solving for Uy, Initial residual = 0.174159, Final residual = 0.0136322, No Iterations 5
DILUPBiCGStab:  Solving for Uz, Initial residual = 0.736383, Final residual = 0.039821, No Iterations 5
[INFO] MomentumPredictor: 1658.22 [ms]
[INFO] MatrixAssemblyPI: 239.759 [ms]
[INFO] AdjustPhi: 13.537 [ms]
[INFO] ConstrainPressure: 0.002 [ms]
[INFO] MatrixAssemblyPII: 70.068 [ms]
nonePCG:  Solving for p, Initial residual = 0.892502, Final residual = 9.88313e-05, No Iterations 1295
[INFO] SolveP: 34524.7 [ms]
time step continuity errors : sum local = 1.20358e-08, global = 1.18198e-21, cumulative = 3.28654e-21
[INFO] ContinuityError: 25.864 [ms]
[INFO] CorrectBoundary: 1.191 [ms]
[INFO] PISOStep: 34955.8 [ms]
[INFO] MatrixAssemblyPI: 234.402 [ms]
[INFO] AdjustPhi: 26.968 [ms]
[INFO] ConstrainPressure: 0.004 [ms]
[INFO] MatrixAssemblyPII: 93.327 [ms]
nonePCG:  Solving for p, Initial residual = 0.832079, Final residual = 9.8772e-05, No Iterations 1154
[INFO] SolveP: 30708.6 [ms]
time step continuity errors : sum local = 1.1647e-08, global = 3.23953e-22, cumulative = 3.6105e-21
[INFO] ContinuityError: 25.946 [ms]
[INFO] CorrectBoundary: 1.001 [ms]
[INFO] PISOStep: 31170.6 [ms]
[INFO] TimeStep: 68026.6 [ms]
ExecutionTime = 391.45 s  ClockTime = 394 s

Time = 0.00083

Courant Number mean: 0.0273794 max: 0.505306
[INFO] MatrixAssemblyU: 215.169 [ms]
DILUPBiCGStab:  Solving for Ux, Initial residual = 0.0324487, Final residual = 0.00255799, No Iterations 5
DILUPBiCGStab:  Solving for Uy, Initial residual = 0.130085, Final residual = 0.0115348, No Iterations 5
DILUPBiCGStab:  Solving for Uz, Initial residual = 0.685855, Final residual = 0.0351842, No Iterations 5
[INFO] MomentumPredictor: 1664.66 [ms]
[INFO] MatrixAssemblyPI: 239.586 [ms]
[INFO] AdjustPhi: 13.702 [ms]
[INFO] ConstrainPressure: 0.003 [ms]
[INFO] MatrixAssemblyPII: 69.74 [ms]
nonePCG:  Solving for p, Initial residual = 0.912073, Final residual = 9.93894e-05, No Iterations 2377
[INFO] SolveP: 63024.8 [ms]
time step continuity errors : sum local = 1.11407e-08, global = 5.61091e-22, cumulative = 4.17159e-21
[INFO] ContinuityError: 24.929 [ms]
[INFO] CorrectBoundary: 0.882 [ms]
[INFO] PISOStep: 63455.1 [ms]
[INFO] MatrixAssemblyPI: 235.049 [ms]
[INFO] AdjustPhi: 11.328 [ms]
[INFO] ConstrainPressure: 0.003 [ms]
[INFO] MatrixAssemblyPII: 69.656 [ms]
nonePCG:  Solving for p, Initial residual = 0.873674, Final residual = 9.76793e-05, No Iterations 2376
[INFO] SolveP: 63111.4 [ms]
time step continuity errors : sum local = 1.08079e-08, global = 1.90821e-23, cumulative = 4.19067e-21
[INFO] ContinuityError: 25.066 [ms]
[INFO] CorrectBoundary: 0.884 [ms]
[INFO] PISOStep: 63535.2 [ms]
[INFO] TimeStep: 128897 [ms]
ExecutionTime = 519.67 s  ClockTime = 523 s

Time = 0.000996

Courant Number mean: 0.0301078 max: 0.478345
[INFO] MatrixAssemblyU: 218.873 [ms]
DILUPBiCGStab:  Solving for Ux, Initial residual = 0.0271519, Final residual = 0.00232948, No Iterations 5
DILUPBiCGStab:  Solving for Uy, Initial residual = 0.112279, Final residual = 0.00922794, No Iterations 5
DILUPBiCGStab:  Solving for Uz, Initial residual = 0.59015, Final residual = 0.0274726, No Iterations 5
[INFO] MomentumPredictor: 1651.07 [ms]
[INFO] MatrixAssemblyPI: 241.77 [ms]
[INFO] AdjustPhi: 11.545 [ms]
[INFO] ConstrainPressure: 0.003 [ms]
[INFO] MatrixAssemblyPII: 69.629 [ms]
nonePCG:  Solving for p, Initial residual = 0.890411, Final residual = 9.77532e-05, No Iterations 2372
[INFO] SolveP: 63037 [ms]
time step continuity errors : sum local = 1.12338e-08, global = 3.62029e-22, cumulative = 4.5527e-21
[INFO] ContinuityError: 25.094 [ms]
[INFO] CorrectBoundary: 0.915 [ms]
[INFO] PISOStep: 63467.8 [ms]
[INFO] MatrixAssemblyPI: 229.639 [ms]
[INFO] AdjustPhi: 15.791 [ms]
[INFO] ConstrainPressure: 0.003 [ms]
[INFO] MatrixAssemblyPII: 70.191 [ms]
nonePCG:  Solving for p, Initial residual = 0.827117, Final residual = 9.97618e-05, No Iterations 2365
[INFO] SolveP: 62633.7 [ms]
time step continuity errors : sum local = 1.16372e-08, global = 9.11434e-22, cumulative = 5.46413e-21
[INFO] ContinuityError: 26.685 [ms]
[INFO] CorrectBoundary: 0.755 [ms]
[INFO] PISOStep: 63056.5 [ms]
[INFO] TimeStep: 128421 [ms]
ExecutionTime = 647.39 s  ClockTime = 651 s

Time = 0.001162

Courant Number mean: 0.0325679 max: 0.512353
[INFO] MatrixAssemblyU: 217.733 [ms]
DILUPBiCGStab:  Solving for Ux, Initial residual = 0.0246342, Final residual = 0.00216055, No Iterations 5
DILUPBiCGStab:  Solving for Uy, Initial residual = 0.0988504, Final residual = 0.00848363, No Iterations 5
DILUPBiCGStab:  Solving for Uz, Initial residual = 0.564068, Final residual = 0.0243139, No Iterations 5
[INFO] MomentumPredictor: 1653.16 [ms]
[INFO] MatrixAssemblyPI: 241.639 [ms]
[INFO] AdjustPhi: 11.299 [ms]
[INFO] ConstrainPressure: 0.003 [ms]
[INFO] MatrixAssemblyPII: 70.207 [ms]
nonePCG:  Solving for p, Initial residual = 0.907992, Final residual = 9.84351e-05, No Iterations 2100
[INFO] SolveP: 55852.5 [ms]
time step continuity errors : sum local = 1.10226e-08, global = 1.09083e-21, cumulative = 6.55497e-21
[INFO] ContinuityError: 25.297 [ms]
[INFO] CorrectBoundary: 1.26 [ms]
[INFO] PISOStep: 56283.5 [ms]
[INFO] MatrixAssemblyPI: 232.883 [ms]
[INFO] AdjustPhi: 12.797 [ms]
[INFO] ConstrainPressure: 0.003 [ms]
[INFO] MatrixAssemblyPII: 69.32 [ms]
nonePCG:  Solving for p, Initial residual = 0.862812, Final residual = 9.85855e-05, No Iterations 2097
[INFO] SolveP: 55699.4 [ms]
time step continuity errors : sum local = 1.09184e-08, global = 1.70856e-21, cumulative = 8.26353e-21
[INFO] ContinuityError: 25.308 [ms]
[INFO] CorrectBoundary: 0.978 [ms]
[INFO] PISOStep: 56122.8 [ms]
[INFO] TimeStep: 114304 [ms]
ExecutionTime = 761.08 s  ClockTime = 765 s

Time = 0.001328

Courant Number mean: 0.0346367 max: 0.481266
[INFO] MatrixAssemblyU: 217.001 [ms]
DILUPBiCGStab:  Solving for Ux, Initial residual = 0.0222322, Final residual = 0.00202485, No Iterations 5
DILUPBiCGStab:  Solving for Uy, Initial residual = 0.0875479, Final residual = 0.00712976, No Iterations 5
DILUPBiCGStab:  Solving for Uz, Initial residual = 0.521676, Final residual = 0.0219653, No Iterations 5
[INFO] MomentumPredictor: 1653.32 [ms]
[INFO] MatrixAssemblyPI: 241.124 [ms]
[INFO] AdjustPhi: 11.597 [ms]
[INFO] ConstrainPressure: 0.002 [ms]
[INFO] MatrixAssemblyPII: 69.858 [ms]
nonePCG:  Solving for p, Initial residual = 0.886763, Final residual = 9.88944e-05, No Iterations 2312
[INFO] SolveP: 61465.7 [ms]
time step continuity errors : sum local = 1.12759e-08, global = 3.81255e-24, cumulative = 8.26734e-21
[INFO] ContinuityError: 25.419 [ms]
[INFO] CorrectBoundary: 1.83 [ms]
[INFO] PISOStep: 61895.3 [ms]
[INFO] MatrixAssemblyPI: 232.706 [ms]
[INFO] AdjustPhi: 13.714 [ms]
[INFO] ConstrainPressure: 0.003 [ms]
[INFO] MatrixAssemblyPII: 69.211 [ms]
nonePCG:  Solving for p, Initial residual = 0.820864, Final residual = 9.91406e-05, No Iterations 2305
[INFO] SolveP: 61225 [ms]
time step continuity errors : sum local = 1.1458e-08, global = 9.05729e-22, cumulative = 9.17307e-21
[INFO] ContinuityError: 25.523 [ms]
[INFO] CorrectBoundary: 1.306 [ms]
[INFO] PISOStep: 61648.8 [ms]
[INFO] TimeStep: 125441 [ms]
ExecutionTime = 885.87 s  ClockTime = 891 s

Time = 0.001494

Courant Number mean: 0.036568 max: 0.518553
[INFO] MatrixAssemblyU: 218.6 [ms]
DILUPBiCGStab:  Solving for Ux, Initial residual = 0.0206517, Final residual = 0.00188668, No Iterations 5
DILUPBiCGStab:  Solving for Uy, Initial residual = 0.0824743, Final residual = 0.00672615, No Iterations 5
DILUPBiCGStab:  Solving for Uz, Initial residual = 0.51617, Final residual = 0.0204719, No Iterations 5
[INFO] MomentumPredictor: 1653.33 [ms]
[INFO] MatrixAssemblyPI: 241.99 [ms]
[INFO] AdjustPhi: 10.813 [ms]
[INFO] ConstrainPressure: 0.003 [ms]
[INFO] MatrixAssemblyPII: 70.163 [ms]
nonePCG:  Solving for p, Initial residual = 0.903875, Final residual = 9.82093e-05, No Iterations 2205
[INFO] SolveP: 58553.4 [ms]
time step continuity errors : sum local = 1.09488e-08, global = -2.68329e-22, cumulative = 8.90474e-21
[INFO] ContinuityError: 24.759 [ms]
[INFO] CorrectBoundary: 0.888 [ms]
[INFO] PISOStep: 58982.8 [ms]
[INFO] MatrixAssemblyPI: 233.138 [ms]
[INFO] AdjustPhi: 13.128 [ms]
[INFO] ConstrainPressure: 0.003 [ms]
[INFO] MatrixAssemblyPII: 70.053 [ms]
nonePCG:  Solving for p, Initial residual = 0.854166, Final residual = 9.96884e-05, No Iterations 2202
[INFO] SolveP: 58482 [ms]
time step continuity errors : sum local = 1.10053e-08, global = 7.09357e-22, cumulative = 9.6141e-21
[INFO] ContinuityError: 27.721 [ms]
[INFO] CorrectBoundary: 0.906 [ms]
[INFO] PISOStep: 58905.2 [ms]
[INFO] TimeStep: 119787 [ms]
ExecutionTime = 1005.01 s  ClockTime = 1011 s

Time = 0.00166

Courant Number mean: 0.0382481 max: 0.483675
[INFO] MatrixAssemblyU: 216.488 [ms]
DILUPBiCGStab:  Solving for Ux, Initial residual = 0.0194491, Final residual = 0.00179486, No Iterations 5
DILUPBiCGStab:  Solving for Uy, Initial residual = 0.0741162, Final residual = 0.00583268, No Iterations 5
DILUPBiCGStab:  Solving for Uz, Initial residual = 0.49272, Final residual = 0.0192021, No Iterations 5
[INFO] MomentumPredictor: 1660.29 [ms]
[INFO] MatrixAssemblyPI: 241.35 [ms]
[INFO] AdjustPhi: 11.591 [ms]
[INFO] ConstrainPressure: 0.003 [ms]
[INFO] MatrixAssemblyPII: 70.183 [ms]
nonePCG:  Solving for p, Initial residual = 0.885487, Final residual = 9.96377e-05, No Iterations 2283
[INFO] SolveP: 60696.2 [ms]
time step continuity errors : sum local = 1.14708e-08, global = 1.17043e-21, cumulative = 1.07845e-20
[INFO] ContinuityError: 24.804 [ms]
[INFO] CorrectBoundary: 1.2 [ms]
[INFO] PISOStep: 61126.6 [ms]
[INFO] MatrixAssemblyPI: 233.772 [ms]
[INFO] AdjustPhi: 12.753 [ms]
[INFO] ConstrainPressure: 0.003 [ms]
[INFO] MatrixAssemblyPII: 70.056 [ms]
nonePCG:  Solving for p, Initial residual = 0.81649, Final residual = 9.95832e-05, No Iterations 2291
[INFO] SolveP: 60989.9 [ms]
time step continuity errors : sum local = 1.16072e-08, global = -3.3133e-22, cumulative = 1.04532e-20
[INFO] ContinuityError: 22.674 [ms]
[INFO] CorrectBoundary: 1.004 [ms]
[INFO] PISOStep: 61414.2 [ms]
[INFO] TimeStep: 124445 [ms]
ExecutionTime = 1128.79 s  ClockTime = 1135 s

Time = 0.001826

Courant Number mean: 0.0398559 max: 0.525169
[INFO] MatrixAssemblyU: 217.56 [ms]
DILUPBiCGStab:  Solving for Ux, Initial residual = 0.0182779, Final residual = 0.00167238, No Iterations 5
DILUPBiCGStab:  Solving for Uy, Initial residual = 0.0725276, Final residual = 0.00561554, No Iterations 5
DILUPBiCGStab:  Solving for Uz, Initial residual = 0.496077, Final residual = 0.0185737, No Iterations 5
[INFO] MomentumPredictor: 1651.71 [ms]
[INFO] MatrixAssemblyPI: 241.441 [ms]
[INFO] AdjustPhi: 11.333 [ms]
[INFO] ConstrainPressure: 0.003 [ms]
[INFO] MatrixAssemblyPII: 70.271 [ms]
nonePCG:  Solving for p, Initial residual = 0.903992, Final residual = 9.94817e-05, No Iterations 2294
[INFO] SolveP: 61022.4 [ms]
time step continuity errors : sum local = 1.13781e-08, global = 1.91351e-21, cumulative = 1.23667e-20
[INFO] ContinuityError: 25.21 [ms]
[INFO] CorrectBoundary: 0.963 [ms]
[INFO] PISOStep: 61452.7 [ms]
[INFO] MatrixAssemblyPI: 235.003 [ms]
[INFO] AdjustPhi: 10.421 [ms]
[INFO] ConstrainPressure: 0.003 [ms]
[INFO] MatrixAssemblyPII: 69.661 [ms]
nonePCG:  Solving for p, Initial residual = 0.849403, Final residual = 9.74308e-05, No Iterations 2293
[INFO] SolveP: 60860.8 [ms]
time step continuity errors : sum local = 1.10505e-08, global = 4.95246e-22, cumulative = 1.2862e-20
[INFO] ContinuityError: 24.997 [ms]
[INFO] CorrectBoundary: 1.1 [ms]
[INFO] PISOStep: 61283 [ms]
[INFO] TimeStep: 124632 [ms]
ExecutionTime = 1252.74 s  ClockTime = 1260 s

Time = 0.001992

Courant Number mean: 0.0412763 max: 0.486776
[INFO] MatrixAssemblyU: 214.754 [ms]
DILUPBiCGStab:  Solving for Ux, Initial residual = 0.0176879, Final residual = 0.00161786, No Iterations 5
DILUPBiCGStab:  Solving for Uy, Initial residual = 0.0659922, Final residual = 0.00494003, No Iterations 5
DILUPBiCGStab:  Solving for Uz, Initial residual = 0.481916, Final residual = 0.0180509, No Iterations 5
[INFO] MomentumPredictor: 1655.63 [ms]
[INFO] MatrixAssemblyPI: 241.515 [ms]
[INFO] AdjustPhi: 11.539 [ms]
[INFO] ConstrainPressure: 0.003 [ms]
[INFO] MatrixAssemblyPII: 69.412 [ms]
nonePCG:  Solving for p, Initial residual = 0.886996, Final residual = 9.75939e-05, No Iterations 2296
[INFO] SolveP: 61000.1 [ms]
time step continuity errors : sum local = 1.16154e-08, global = 6.29867e-22, cumulative = 1.34918e-20
[INFO] ContinuityError: 24.966 [ms]
[INFO] CorrectBoundary: 1.264 [ms]
[INFO] PISOStep: 61430.6 [ms]
[INFO] MatrixAssemblyPI: 230.245 [ms]
[INFO] AdjustPhi: 14.741 [ms]
[INFO] ConstrainPressure: 0.003 [ms]
[INFO] MatrixAssemblyPII: 69.311 [ms]
nonePCG:  Solving for p, Initial residual = 0.816537, Final residual = 9.86236e-05, No Iterations 2293
[INFO] SolveP: 60922 [ms]
time step continuity errors : sum local = 1.1868e-08, global = -8.41637e-23, cumulative = 1.34077e-20
[INFO] ContinuityError: 25.468 [ms]
[INFO] CorrectBoundary: 0.879 [ms]
[INFO] PISOStep: 61343.8 [ms]
[INFO] TimeStep: 124672 [ms]
ExecutionTime = 1376.71 s  ClockTime = 1384 s

Time = 0.002158

Courant Number mean: 0.0426634 max: 0.532772
[INFO] MatrixAssemblyU: 216.749 [ms]
DILUPBiCGStab:  Solving for Ux, Initial residual = 0.0167492, Final residual = 0.0015013, No Iterations 5
DILUPBiCGStab:  Solving for Uy, Initial residual = 0.0660597, Final residual = 0.00484794, No Iterations 5
DILUPBiCGStab:  Solving for Uz, Initial residual = 0.489378, Final residual = 0.0175858, No Iterations 5
[INFO] MomentumPredictor: 1653.35 [ms]
[INFO] MatrixAssemblyPI: 239.1 [ms]
[INFO] AdjustPhi: 13.877 [ms]
[INFO] ConstrainPressure: 0.003 [ms]
[INFO] MatrixAssemblyPII: 69.974 [ms]
nonePCG:  Solving for p, Initial residual = 0.904676, Final residual = 9.76309e-05, No Iterations 2294
[INFO] SolveP: 60954.7 [ms]
time step continuity errors : sum local = 1.16142e-08, global = -6.99763e-22, cumulative = 1.27079e-20
[INFO] ContinuityError: 25.638 [ms]
[INFO] CorrectBoundary: 0.996 [ms]
[INFO] PISOStep: 61384.7 [ms]
[INFO] MatrixAssemblyPI: 231.738 [ms]
[INFO] AdjustPhi: 14.707 [ms]
[INFO] ConstrainPressure: 0.003 [ms]
[INFO] MatrixAssemblyPII: 70.331 [ms]
nonePCG:  Solving for p, Initial residual = 0.846569, Final residual = 9.99849e-05, No Iterations 2291
[INFO] SolveP: 60816.8 [ms]
time step continuity errors : sum local = 1.18118e-08, global = 1.10913e-21, cumulative = 1.3817e-20
[INFO] ContinuityError: 25.756 [ms]
[INFO] CorrectBoundary: 0.941 [ms]
[INFO] PISOStep: 61240.8 [ms]
[INFO] TimeStep: 124523 [ms]
ExecutionTime = 1500.54 s  ClockTime = 1509 s

Time = 0.002324

Courant Number mean: 0.0438967 max: 0.489838
[INFO] MatrixAssemblyU: 214.47 [ms]
DILUPBiCGStab:  Solving for Ux, Initial residual = 0.0165125, Final residual = 0.00147549, No Iterations 5
DILUPBiCGStab:  Solving for Uy, Initial residual = 0.0608508, Final residual = 0.00430515, No Iterations 5
DILUPBiCGStab:  Solving for Uz, Initial residual = 0.48004, Final residual = 0.017232, No Iterations 5
[INFO] MomentumPredictor: 1654.1 [ms]
[INFO] MatrixAssemblyPI: 240.369 [ms]
[INFO] AdjustPhi: 12.355 [ms]
[INFO] ConstrainPressure: 0.003 [ms]
[INFO] MatrixAssemblyPII: 70.134 [ms]
nonePCG:  Solving for p, Initial residual = 0.889348, Final residual = 9.84284e-05, No Iterations 2294
[INFO] SolveP: 60895.4 [ms]
time step continuity errors : sum local = 1.21973e-08, global = 7.54577e-22, cumulative = 1.45716e-20
[INFO] ContinuityError: 24.8 [ms]
[INFO] CorrectBoundary: 0.915 [ms]
[INFO] PISOStep: 61324.9 [ms]
[INFO] MatrixAssemblyPI: 235.384 [ms]
[INFO] AdjustPhi: 10.808 [ms]
[INFO] ConstrainPressure: 0.004 [ms]
[INFO] MatrixAssemblyPII: 69.878 [ms]
nonePCG:  Solving for p, Initial residual = 0.817737, Final residual = 9.94352e-05, No Iterations 2291
[INFO] SolveP: 60932.8 [ms]
time step continuity errors : sum local = 1.24412e-08, global = 7.69323e-22, cumulative = 1.53409e-20
[INFO] ContinuityError: 24.999 [ms]
[INFO] CorrectBoundary: 0.952 [ms]
[INFO] PISOStep: 61355.9 [ms]
[INFO] TimeStep: 124576 [ms]
ExecutionTime = 1624.44 s  ClockTime = 1634 s

Time = 0.00249

Courant Number mean: 0.0451233 max: 0.54141
[INFO] MatrixAssemblyU: 216.615 [ms]
DILUPBiCGStab:  Solving for Ux, Initial residual = 0.0157582, Final residual = 0.00136409, No Iterations 5
DILUPBiCGStab:  Solving for Uy, Initial residual = 0.0617308, Final residual = 0.00428889, No Iterations 5
DILUPBiCGStab:  Solving for Uz, Initial residual = 0.489438, Final residual = 0.0169816, No Iterations 5
[INFO] MomentumPredictor: 1654.89 [ms]
[INFO] MatrixAssemblyPI: 241.616 [ms]
[INFO] AdjustPhi: 11.232 [ms]
[INFO] ConstrainPressure: 0.003 [ms]
[INFO] MatrixAssemblyPII: 69.881 [ms]
nonePCG:  Solving for p, Initial residual = 0.905511, Final residual = 9.78025e-05, No Iterations 2293
[INFO] SolveP: 61056.8 [ms]
time step continuity errors : sum local = 1.21564e-08, global = -8.39094e-22, cumulative = 1.45018e-20
[INFO] ContinuityError: 25.196 [ms]
[INFO] CorrectBoundary: 0.72 [ms]
[INFO] PISOStep: 61486.7 [ms]
[INFO] MatrixAssemblyPI: 234.307 [ms]
[INFO] AdjustPhi: 11.043 [ms]
[INFO] ConstrainPressure: 0.003 [ms]
[INFO] MatrixAssemblyPII: 69.819 [ms]
nonePCG:  Solving for p, Initial residual = 0.844411, Final residual = 9.95854e-05, No Iterations 2290
[INFO] SolveP: 60779.5 [ms]
time step continuity errors : sum local = 1.23086e-08, global = 6.19148e-22, cumulative = 1.5121e-20
[INFO] ContinuityError: 30.192 [ms]
[INFO] CorrectBoundary: 0.424 [ms]
[INFO] PISOStep: 61229.3 [ms]
[INFO] TimeStep: 124614 [ms]
ExecutionTime = 1748.36 s  ClockTime = 1758 s

Time = 0.002656

Courant Number mean: 0.0462141 max: 0.492949
[INFO] MatrixAssemblyU: 218.029 [ms]
DILUPBiCGStab:  Solving for Ux, Initial residual = 0.0157342, Final residual = 0.0013584, No Iterations 5
DILUPBiCGStab:  Solving for Uy, Initial residual = 0.0576277, Final residual = 0.00384028, No Iterations 5
DILUPBiCGStab:  Solving for Uz, Initial residual = 0.483145, Final residual = 0.0167046, No Iterations 5
[INFO] MomentumPredictor: 1653.72 [ms]
[INFO] MatrixAssemblyPI: 239.195 [ms]
[INFO] AdjustPhi: 13.543 [ms]
[INFO] ConstrainPressure: 0.003 [ms]
[INFO] MatrixAssemblyPII: 69.712 [ms]
nonePCG:  Solving for p, Initial residual = 0.892185, Final residual = 9.94454e-05, No Iterations 2293
[INFO] SolveP: 61251.9 [ms]
time step continuity errors : sum local = 1.28611e-08, global = 5.93617e-22, cumulative = 1.57146e-20
[INFO] ContinuityError: 24.817 [ms]
[INFO] CorrectBoundary: 1.072 [ms]
[INFO] PISOStep: 61681.8 [ms]
[INFO] MatrixAssemblyPI: 234.869 [ms]
[INFO] AdjustPhi: 12.341 [ms]
[INFO] ConstrainPressure: 0.003 [ms]
[INFO] MatrixAssemblyPII: 95.477 [ms]
nonePCG:  Solving for p, Initial residual = 0.819643, Final residual = 9.77499e-05, No Iterations 2291
[INFO] SolveP: 61282.1 [ms]
time step continuity errors : sum local = 1.27478e-08, global = -3.8265e-23, cumulative = 1.56763e-20
[INFO] ContinuityError: 24.511 [ms]
[INFO] CorrectBoundary: 1.214 [ms]
[INFO] PISOStep: 61734.8 [ms]
[INFO] TimeStep: 125317 [ms]
ExecutionTime = 1873.01 s  ClockTime = 1883 s

Time = 0.002822

Courant Number mean: 0.0473173 max: 0.551501
[INFO] MatrixAssemblyU: 214.481 [ms]
DILUPBiCGStab:  Solving for Ux, Initial residual = 0.0151542, Final residual = 0.00125483, No Iterations 5
DILUPBiCGStab:  Solving for Uy, Initial residual = 0.0589402, Final residual = 0.00387083, No Iterations 5
DILUPBiCGStab:  Solving for Uz, Initial residual = 0.493665, Final residual = 0.0166155, No Iterations 5
[INFO] MomentumPredictor: 1653.36 [ms]
[INFO] MatrixAssemblyPI: 241.524 [ms]
[INFO] AdjustPhi: 11.507 [ms]
[INFO] ConstrainPressure: 0.004 [ms]
[INFO] MatrixAssemblyPII: 69.866 [ms]
nonePCG:  Solving for p, Initial residual = 0.906765, Final residual = 9.84267e-05, No Iterations 2293
[INFO] SolveP: 61000.4 [ms]
time step continuity errors : sum local = 1.28216e-08, global = 1.89971e-21, cumulative = 1.7576e-20
[INFO] ContinuityError: 31.908 [ms]
[INFO] CorrectBoundary: 0.888 [ms]
[INFO] PISOStep: 61452.2 [ms]
[INFO] MatrixAssemblyPI: 235.569 [ms]
[INFO] AdjustPhi: 12.035 [ms]
[INFO] ConstrainPressure: 0.002 [ms]
[INFO] MatrixAssemblyPII: 69.671 [ms]
nonePCG:  Solving for p, Initial residual = 0.842711, Final residual = 9.766e-05, No Iterations 2291
[INFO] SolveP: 61001.8 [ms]
time step continuity errors : sum local = 1.26658e-08, global = 9.28946e-22, cumulative = 1.8505e-20
[INFO] ContinuityError: 33.313 [ms]
[INFO] CorrectBoundary: 0.735 [ms]
[INFO] PISOStep: 61444.1 [ms]
[INFO] TimeStep: 124791 [ms]
ExecutionTime = 1997.11 s  ClockTime = 2008 s

Time = 0.002988

Courant Number mean: 0.0482956 max: 0.496275
[INFO] MatrixAssemblyU: 218.037 [ms]
DILUPBiCGStab:  Solving for Ux, Initial residual = 0.0152638, Final residual = 0.00126128, No Iterations 5
DILUPBiCGStab:  Solving for Uy, Initial residual = 0.0557981, Final residual = 0.00349428, No Iterations 5
DILUPBiCGStab:  Solving for Uz, Initial residual = 0.48965, Final residual = 0.0163918, No Iterations 5
[INFO] MomentumPredictor: 1653.95 [ms]
[INFO] MatrixAssemblyPI: 240.912 [ms]
[INFO] AdjustPhi: 12.252 [ms]
[INFO] ConstrainPressure: 0.003 [ms]
[INFO] MatrixAssemblyPII: 69.84 [ms]
nonePCG:  Solving for p, Initial residual = 0.896591, Final residual = 9.88137e-05, No Iterations 2289
[INFO] SolveP: 61223.5 [ms]
time step continuity errors : sum local = 1.33831e-08, global = 1.45979e-21, cumulative = 1.99648e-20
[INFO] ContinuityError: 24.881 [ms]
[INFO] CorrectBoundary: 1.08 [ms]
[INFO] PISOStep: 61653.7 [ms]
[INFO] MatrixAssemblyPI: 234.077 [ms]
[INFO] AdjustPhi: 12.255 [ms]
[INFO] ConstrainPressure: 0.003 [ms]
[INFO] MatrixAssemblyPII: 69.551 [ms]
nonePCG:  Solving for p, Initial residual = 0.822747, Final residual = 9.80632e-05, No Iterations 2289
[INFO] SolveP: 60963.9 [ms]
time step continuity errors : sum local = 1.33783e-08, global = 1.99849e-22, cumulative = 2.01646e-20
[INFO] ContinuityError: 24.602 [ms]
[INFO] CorrectBoundary: 1.446 [ms]
[INFO] PISOStep: 61387.3 [ms]
[INFO] TimeStep: 124940 [ms]
ExecutionTime = 2121.37 s  ClockTime = 2133 s

Time = 0.003154

Courant Number mean: 0.049302 max: 0.563027
[INFO] MatrixAssemblyU: 221.232 [ms]
DILUPBiCGStab:  Solving for Ux, Initial residual = 0.0148571, Final residual = 0.00116847, No Iterations 5
DILUPBiCGStab:  Solving for Uy, Initial residual = 0.0573672, Final residual = 0.00355362, No Iterations 5
DILUPBiCGStab:  Solving for Uz, Initial residual = 0.500616, Final residual = 0.0163874, No Iterations 5
[INFO] MomentumPredictor: 1649.57 [ms]
[INFO] MatrixAssemblyPI: 240.248 [ms]
[INFO] AdjustPhi: 12.547 [ms]
[INFO] ConstrainPressure: 0.003 [ms]
[INFO] MatrixAssemblyPII: 69.648 [ms]
nonePCG:  Solving for p, Initial residual = 0.909353, Final residual = 9.84201e-05, No Iterations 2294
[INFO] SolveP: 61448.5 [ms]
time step continuity errors : sum local = 1.34972e-08, global = -1.88952e-22, cumulative = 1.99757e-20
[INFO] ContinuityError: 24.558 [ms]
[INFO] CorrectBoundary: 1.181 [ms]
[INFO] PISOStep: 61879 [ms]
[INFO] MatrixAssemblyPI: 232.54 [ms]
[INFO] AdjustPhi: 17.155 [ms]
[INFO] ConstrainPressure: 0.003 [ms]
[INFO] MatrixAssemblyPII: 71.662 [ms]
nonePCG:  Solving for p, Initial residual = 0.842365, Final residual = 9.7253e-05, No Iterations 2292
[INFO] SolveP: 61174 [ms]
time step continuity errors : sum local = 1.32927e-08, global = -3.23932e-22, cumulative = 1.96517e-20
[INFO] ContinuityError: 26.385 [ms]
[INFO] CorrectBoundary: 1.222 [ms]
[INFO] PISOStep: 61604.6 [ms]
[INFO] TimeStep: 125381 [ms]
ExecutionTime = 2246.03 s  ClockTime = 2259 s

Time = 0.00332

Courant Number mean: 0.0501879 max: 0.499873
[INFO] MatrixAssemblyU: 219.854 [ms]
DILUPBiCGStab:  Solving for Ux, Initial residual = 0.0150644, Final residual = 0.0011808, No Iterations 5
DILUPBiCGStab:  Solving for Uy, Initial residual = 0.0549999, Final residual = 0.00323676, No Iterations 5
DILUPBiCGStab:  Solving for Uz, Initial residual = 0.498525, Final residual = 0.0162463, No Iterations 5
[INFO] MomentumPredictor: 1650.36 [ms]
[INFO] MatrixAssemblyPI: 241.569 [ms]
[INFO] AdjustPhi: 11.846 [ms]
[INFO] ConstrainPressure: 0.003 [ms]
[INFO] MatrixAssemblyPII: 70.039 [ms]
nonePCG:  Solving for p, Initial residual = 0.902028, Final residual = 9.95483e-05, No Iterations 2295
[INFO] SolveP: 61143.6 [ms]
time step continuity errors : sum local = 1.41825e-08, global = 1.75704e-21, cumulative = 2.14088e-20
[INFO] ContinuityError: 25.288 [ms]
[INFO] CorrectBoundary: 1.279 [ms]
[INFO] PISOStep: 61575 [ms]
[INFO] MatrixAssemblyPI: 234.902 [ms]
[INFO] AdjustPhi: 10.457 [ms]
[INFO] ConstrainPressure: 0.003 [ms]
[INFO] MatrixAssemblyPII: 69.266 [ms]
nonePCG:  Solving for p, Initial residual = 0.826956, Final residual = 9.97691e-05, No Iterations 2292
[INFO] SolveP: 61280.9 [ms]
time step continuity errors : sum local = 1.43044e-08, global = 1.12638e-21, cumulative = 2.25352e-20
[INFO] ContinuityError: 24.756 [ms]
[INFO] CorrectBoundary: 0.988 [ms]
[INFO] PISOStep: 61703.9 [ms]
[INFO] TimeStep: 125176 [ms]
ExecutionTime = 2370.51 s  ClockTime = 2384 s

End

Finalising parallel run
