/*---------------------------------------------------------------------------*\
| =========                 |                                                 |
| \\      /  F ield         | OpenFOAM: The Open Source CFD Toolbox           |
|  \\    /   O peration     | Version:  v2106                                 |
|   \\  /    A nd           | Website:  www.openfoam.com                      |
|    \\/     M anipulation  |                                                 |
\*---------------------------------------------------------------------------*/
Build  : f815a12bba-20210902 OPENFOAM=2106
Arch   : "LSB;label=32;scalar=64"
Exec   : simpleFoam -parallel -case /home/greole/data/code/exasim_project/micro_benchmarks/WindsorBody/workspace/3dc6ed31039407ab4724f9f2544d9268/case
Date   : Jun 25 2023
Time   : 18:17:37
Host   : nla-gpu2.ianm.kit.edu
PID    : 3726409
I/O    : uncollated
Case   : /home/greole/data/code/exasim_project/micro_benchmarks/WindsorBody/workspace/3dc6ed31039407ab4724f9f2544d9268/case
nProcs : 8
Hosts  :
(
    (nla-gpu2.ianm.kit.edu 8)
)
Pstream initialized with:
    floatTransfer      : 0
    nProcsSimpleSum    : 0
    commsType          : nonBlocking
    polling iterations : 0
trapFpe: Floating point exception trapping enabled (FOAM_SIGFPE).
fileModificationChecking : Monitoring run-time modified files using timeStampMaster (fileModificationSkew 5, maxFileModificationPolls 20)
allowSystemOperations : Allowing user-supplied system call operations

// * * * * * * * * * * * * * * * * * * * * * * * * * * * * * * * * * * * * * //
Create time

Create mesh for time = 0


SIMPLE: convergence criteria
    field p	 tolerance 1e-08
    field U	 tolerance 1e-08
    field k	 tolerance 1e-08
    field omega	 tolerance 1e-08
    field nuTilda	 tolerance 1e-08

Reading field p

Reading field U

Reading/calculating face flux field phi

Selecting incompressible transport model Newtonian
Selecting turbulence model type RAS
Selecting RAS turbulence model SpalartAllmaras
Selecting patchDistMethod meshWave
RAS
{
    RASModel        SpalartAllmaras;
    turbulence      on;
    printCoeffs     on;
    sigmaNut        0.6666666666666666;
    kappa           0.41;
    Cb1             0.1355;
    Cb2             0.622;
    Cw2             0.3;
    Cw3             2;
    Cv1             7.1;
    Cs              0.3;
}

No MRF models present

Creating finite volume options from "system/fvOptions"

Selecting finite volume options type velocityDampingConstraint
    Source: velocityDamping
    - selecting all cells
    - selected 18921408 cell(s) with volume 83.47749154789851

Starting time loop

--> FOAM Warning : 
    From bool Foam::functionObjectList::read()
    in file db/functionObjects/functionObjectList/functionObjectList.C at line 1013
    Reading "/home/greole/data/code/exasim_project/micro_benchmarks/WindsorBody/workspace/3dc6ed31039407ab4724f9f2544d9268/case/system/controlDict" at line 2 to 41
    Entry lref is not a dictionary
--> FOAM Warning : 
    From bool Foam::functionObjectList::read()
    in file db/functionObjects/functionObjectList/functionObjectList.C at line 1013
    Reading "/home/greole/data/code/exasim_project/micro_benchmarks/WindsorBody/workspace/3dc6ed31039407ab4724f9f2544d9268/case/system/controlDict" at line 2 to 41
    Entry Aref is not a dictionary
--> FOAM Warning : 
    From bool Foam::functionObjectList::read()
    in file db/functionObjects/functionObjectList/functionObjectList.C at line 1013
    Reading "/home/greole/data/code/exasim_project/micro_benchmarks/WindsorBody/workspace/3dc6ed31039407ab4724f9f2544d9268/case/system/controlDict" at line 2 to 41
    Entry yawAngle is not a dictionary
--> FOAM Warning : 
    From bool Foam::functionObjectList::read()
    in file db/functionObjects/functionObjectList/functionObjectList.C at line 1013
    Reading "/home/greole/data/code/exasim_project/micro_benchmarks/WindsorBody/workspace/3dc6ed31039407ab4724f9f2544d9268/case/system/controlDict" at line 2 to 41
    Entry lDomain is not a dictionary
--> FOAM Warning : 
    From bool Foam::functionObjectList::read()
    in file db/functionObjects/functionObjectList/functionObjectList.C at line 1013
    Reading "/home/greole/data/code/exasim_project/micro_benchmarks/WindsorBody/workspace/3dc6ed31039407ab4724f9f2544d9268/case/system/controlDict" at line 2 to 41
    Entry bDomain is not a dictionary
--> FOAM Warning : 
    From bool Foam::functionObjectList::read()
    in file db/functionObjects/functionObjectList/functionObjectList.C at line 1013
    Reading "/home/greole/data/code/exasim_project/micro_benchmarks/WindsorBody/workspace/3dc6ed31039407ab4724f9f2544d9268/case/system/controlDict" at line 2 to 41
    Entry hDomain is not a dictionary
--> FOAM Warning : 
    From bool Foam::functionObjectList::read()
    in file db/functionObjects/functionObjectList/functionObjectList.C at line 1013
    Reading "/home/greole/data/code/exasim_project/micro_benchmarks/WindsorBody/workspace/3dc6ed31039407ab4724f9f2544d9268/case/system/controlDict" at line 2 to 41
    Entry xCenter is not a dictionary
--> FOAM Warning : 
    From bool Foam::functionObjectList::read()
    in file db/functionObjects/functionObjectList/functionObjectList.C at line 1013
    Reading "/home/greole/data/code/exasim_project/micro_benchmarks/WindsorBody/workspace/3dc6ed31039407ab4724f9f2544d9268/case/system/controlDict" at line 2 to 41
    Entry yCenter is not a dictionary
--> FOAM Warning : 
    From bool Foam::functionObjectList::read()
    in file db/functionObjects/functionObjectList/functionObjectList.C at line 1013
    Reading "/home/greole/data/code/exasim_project/micro_benchmarks/WindsorBody/workspace/3dc6ed31039407ab4724f9f2544d9268/case/system/controlDict" at line 2 to 41
    Entry zCenter is not a dictionary
--> FOAM Warning : 
    From bool Foam::functionObjectList::read()
    in file db/functionObjects/functionObjectList/functionObjectList.C at line 1013
    Reading "/home/greole/data/code/exasim_project/micro_benchmarks/WindsorBody/workspace/3dc6ed31039407ab4724f9f2544d9268/case/system/controlDict" at line 2 to 41
    Entry inletPatch is not a dictionary
--> FOAM Warning : 
    From bool Foam::functionObjectList::read()
    in file db/functionObjects/functionObjectList/functionObjectList.C at line 1013
    Reading "/home/greole/data/code/exasim_project/micro_benchmarks/WindsorBody/workspace/3dc6ed31039407ab4724f9f2544d9268/case/system/controlDict" at line 2 to 41
    Entry outletPatch is not a dictionary
--> FOAM Warning : 
    From bool Foam::functionObjectList::read()
    in file db/functionObjects/functionObjectList/functionObjectList.C at line 1013
    Reading "/home/greole/data/code/exasim_project/micro_benchmarks/WindsorBody/workspace/3dc6ed31039407ab4724f9f2544d9268/case/system/controlDict" at line 2 to 41
    Entry wallPatches is not a dictionary
--> FOAM Warning : 
    From bool Foam::functionObjectList::read()
    in file db/functionObjects/functionObjectList/functionObjectList.C at line 1013
    Reading "/home/greole/data/code/exasim_project/micro_benchmarks/WindsorBody/workspace/3dc6ed31039407ab4724f9f2544d9268/case/system/controlDict" at line 2 to 41
    Entry forcesWallPatches is not a dictionary
--> FOAM Warning : 
    From bool Foam::functionObjectList::read()
    in file db/functionObjects/functionObjectList/functionObjectList.C at line 1013
    Reading "/home/greole/data/code/exasim_project/micro_benchmarks/WindsorBody/workspace/3dc6ed31039407ab4724f9f2544d9268/case/system/controlDict" at line 2 to 41
    Entry symmPatches is not a dictionary
--> FOAM Warning : 
    From bool Foam::functionObjectList::read()
    in file db/functionObjects/functionObjectList/functionObjectList.C at line 1013
    Reading "/home/greole/data/code/exasim_project/micro_benchmarks/WindsorBody/workspace/3dc6ed31039407ab4724f9f2544d9268/case/system/controlDict" at line 2 to 41
    Entry Uinf is not a dictionary
--> FOAM Warning : 
    From bool Foam::functionObjectList::read()
    in file db/functionObjects/functionObjectList/functionObjectList.C at line 1013
    Reading "/home/greole/data/code/exasim_project/micro_benchmarks/WindsorBody/workspace/3dc6ed31039407ab4724f9f2544d9268/case/system/controlDict" at line 2 to 41
    Entry UinfMag is not a dictionary
--> FOAM Warning : 
    From bool Foam::functionObjectList::read()
    in file db/functionObjects/functionObjectList/functionObjectList.C at line 1013
    Reading "/home/greole/data/code/exasim_project/micro_benchmarks/WindsorBody/workspace/3dc6ed31039407ab4724f9f2544d9268/case/system/controlDict" at line 2 to 41
    Entry nu is not a dictionary
--> FOAM Warning : 
    From bool Foam::functionObjectList::read()
    in file db/functionObjects/functionObjectList/functionObjectList.C at line 1013
    Reading "/home/greole/data/code/exasim_project/micro_benchmarks/WindsorBody/workspace/3dc6ed31039407ab4724f9f2544d9268/case/system/controlDict" at line 2 to 41
    Entry pref is not a dictionary
--> FOAM Warning : 
    From bool Foam::functionObjectList::read()
    in file db/functionObjects/functionObjectList/functionObjectList.C at line 1013
    Reading "/home/greole/data/code/exasim_project/micro_benchmarks/WindsorBody/workspace/3dc6ed31039407ab4724f9f2544d9268/case/system/controlDict" at line 2 to 41
    Entry viscRatio is not a dictionary
--> FOAM Warning : 
    From bool Foam::functionObjectList::read()
    in file db/functionObjects/functionObjectList/functionObjectList.C at line 1013
    Reading "/home/greole/data/code/exasim_project/micro_benchmarks/WindsorBody/workspace/3dc6ed31039407ab4724f9f2544d9268/case/system/controlDict" at line 2 to 41
    Entry Tu is not a dictionary
--> FOAM Warning : 
    From bool Foam::functionObjectList::read()
    in file db/functionObjects/functionObjectList/functionObjectList.C at line 1013
    Reading "/home/greole/data/code/exasim_project/micro_benchmarks/WindsorBody/workspace/3dc6ed31039407ab4724f9f2544d9268/case/system/controlDict" at line 2 to 41
    Entry LESturbModel is not a dictionary
--> FOAM Warning : 
    From bool Foam::functionObjectList::read()
    in file db/functionObjects/functionObjectList/functionObjectList.C at line 1013
    Reading "/home/greole/data/code/exasim_project/micro_benchmarks/WindsorBody/workspace/3dc6ed31039407ab4724f9f2544d9268/case/system/controlDict" at line 2 to 41
    Entry RASturbModel is not a dictionary
--> FOAM Warning : 
    From bool Foam::functionObjectList::read()
    in file db/functionObjects/functionObjectList/functionObjectList.C at line 1013
    Reading "/home/greole/data/code/exasim_project/micro_benchmarks/WindsorBody/workspace/3dc6ed31039407ab4724f9f2544d9268/case/system/controlDict" at line 2 to 41
    Entry deltaTurb is not a dictionary
--> FOAM Warning : 
    From bool Foam::functionObjectList::read()
    in file db/functionObjects/functionObjectList/functionObjectList.C at line 1013
    Reading "/home/greole/data/code/exasim_project/micro_benchmarks/WindsorBody/workspace/3dc6ed31039407ab4724f9f2544d9268/case/system/controlDict" at line 2 to 41
    Entry dt is not a dictionary
--> FOAM Warning : 
    From bool Foam::functionObjectList::read()
    in file db/functionObjects/functionObjectList/functionObjectList.C at line 1013
    Reading "/home/greole/data/code/exasim_project/micro_benchmarks/WindsorBody/workspace/3dc6ed31039407ab4724f9f2544d9268/case/system/controlDict" at line 2 to 41
    Entry tAvg is not a dictionary
--> FOAM Warning : 
    From bool Foam::functionObjectList::read()
    in file db/functionObjects/functionObjectList/functionObjectList.C at line 1013
    Reading "/home/greole/data/code/exasim_project/micro_benchmarks/WindsorBody/workspace/3dc6ed31039407ab4724f9f2544d9268/case/system/controlDict" at line 2 to 41
    Entry tEnd is not a dictionary
--> FOAM Warning : 
    From bool Foam::functionObjectList::read()
    in file db/functionObjects/functionObjectList/functionObjectList.C at line 1013
    Reading "/home/greole/data/code/exasim_project/micro_benchmarks/WindsorBody/workspace/3dc6ed31039407ab4724f9f2544d9268/case/system/controlDict" at line 2 to 41
    Entry writeInterval_ is not a dictionary
--> FOAM Warning : 
    From bool Foam::functionObjectList::read()
    in file db/functionObjects/functionObjectList/functionObjectList.C at line 1013
    Reading "/home/greole/data/code/exasim_project/micro_benchmarks/WindsorBody/workspace/3dc6ed31039407ab4724f9f2544d9268/case/system/controlDict" at line 2 to 41
    Entry nCores is not a dictionary
--> FOAM Warning : 
    From bool Foam::functionObjectList::read()
    in file db/functionObjects/functionObjectList/functionObjectList.C at line 1013
    Reading "/home/greole/data/code/exasim_project/micro_benchmarks/WindsorBody/workspace/3dc6ed31039407ab4724f9f2544d9268/case/system/controlDict" at line 2 to 41
    Entry interpScheme is not a dictionary
--> FOAM Warning : 
    From bool Foam::functionObjectList::read()
    in file db/functionObjects/functionObjectList/functionObjectList.C at line 1013
    Reading "/home/greole/data/code/exasim_project/micro_benchmarks/WindsorBody/workspace/3dc6ed31039407ab4724f9f2544d9268/case/system/controlDict" at line 2 to 41
    Entry probeField is not a dictionary
wallShearStress wallShearStress:
    processing wall patches: 
        Windsor_Body
        CFDWT_Floor
        Windsor_Pins
        Windsor_Base
        Windsor_Body_2
        CFDWT_Floor_2
        Windsor_Pins_2
        Windsor_Base_2
        Windsor_Body_3
        CFDWT_Floor_3
        Windsor_Pins_3
        Windsor_Base_3

pressure calc_cp:
    Operating mode: staticCoeff
    Not including hydrostatic effects

forceCoeffs forceCoeffsAll:
    rho: rhoInf
    Freestream density (rhoInf) set to 1
    Not including porosity effects

forceCoeffs dragCoeffBase:
    rho: rhoInf
    Freestream density (rhoInf) set to 1
    Not including porosity effects

Time = 1

velocityDampingConstraint velocityDamping damped 0 (0%) of cells
[INFO] MatrixAssemblyU: 4773.745 [ms]
smoothSolver:  Solving for Ux, Initial residual = 0.9999999999995743, Final residual = 0.08731637788004669, No Iterations 15
smoothSolver:  Solving for Uy, Initial residual = 1, Final residual = 0.08970145826405987, No Iterations 31
smoothSolver:  Solving for Uz, Initial residual = 1, Final residual = 0.03285841162343466, No Iterations 2
[INFO] MomentumPredictor: 5194.516 [ms]
[INFO] MatrixAssemblyPI: 982.3920000000001 [ms]
[INFO] MatrixAssemblyPII: 464.064 [ms]
DICPCG:  Solving for p, Initial residual = 1, Final residual = 0.009608390229250247, No Iterations 416
[INFO] SolveP: 48296.617 [ms]
time step continuity errors : sum local = 0.00352536851417167, global = 8.026420704399098e-05, cumulative = 8.026420704399098e-05
[INFO] postSolveP: 276.79 [ms]
smoothSolver:  Solving for nuTilda, Initial residual = 0.999999998770475, Final residual = 0.06429209283546923, No Iterations 3
[INFO] TimeStep: 63162.381 [ms]
ExecutionTime = 95.70999999999999 s  ClockTime = 96 s

--> FOAM Warning : 
    From virtual bool Foam::functionObjects::fieldSelection::checkSelection()
    in file functionObjects/fieldSelections/fieldSelection/fieldSelection.C at line 166
    Field k not found
--> FOAM Warning : 
    From virtual bool Foam::functionObjects::fieldSelection::checkSelection()
    in file functionObjects/fieldSelections/fieldSelection/fieldSelection.C at line 166
    Field gammaInt not found
--> FOAM Warning : 
    From virtual bool Foam::functionObjects::fieldSelection::checkSelection()
    in file functionObjects/fieldSelections/fieldSelection/fieldSelection.C at line 166
    Field omega not found
--> FOAM Warning : 
    From virtual bool Foam::functionObjects::fieldSelection::checkSelection()
    in file functionObjects/fieldSelections/fieldSelection/fieldSelection.C at line 166
    Field ReThetat not found
--> FOAM Warning : 
    From virtual bool Foam::functionObjects::fieldSelection::checkSelection()
    in file functionObjects/fieldSelections/fieldSelection/fieldSelection.C at line 166
    Field epsilon not found
--> FOAM Warning : 
    From virtual bool Foam::functionObjects::solverFieldSelection::updateSelection()
    in file functionObjects/fieldSelections/solverFieldSelection/solverFieldSelection.C at line 85
    Valid solver fields are: 3(U nuTilda p)Time = 2

velocityDampingConstraint velocityDamping damped 0 (0%) of cells
[INFO] MatrixAssemblyU: 4481.78 [ms]
smoothSolver:  Solving for Ux, Initial residual = 0.2130824237621221, Final residual = 0.01838711456726788, No Iterations 13
smoothSolver:  Solving for Uy, Initial residual = 0.3545394531829703, Final residual = 0.03305468331497786, No Iterations 13
smoothSolver:  Solving for Uz, Initial residual = 0.3287640116271978, Final residual = 0.02811241134409835, No Iterations 13
[INFO] MomentumPredictor: 4404.223 [ms]
[INFO] MatrixAssemblyPI: 1005.391 [ms]
[INFO] MatrixAssemblyPII: 475.459 [ms]
DICPCG:  Solving for p, Initial residual = 0.2098727188528846, Final residual = 0.002089000743273134, No Iterations 334
[INFO] SolveP: 38803.5 [ms]
time step continuity errors : sum local = 0.04280643471246783, global = 0.00180807373168845, cumulative = 0.001888337938732441
[INFO] postSolveP: 279.385 [ms]
smoothSolver:  Solving for nuTilda, Initial residual = 0.4060236183304594, Final residual = 0.02532329814062784, No Iterations 1
[INFO] TimeStep: 52519.11 [ms]
ExecutionTime = 151.4 s  ClockTime = 152 s

Time = 3

velocityDampingConstraint velocityDamping damped 2493 (0.01317555226334108%) of cells
[INFO] MatrixAssemblyU: 4577.075 [ms]
smoothSolver:  Solving for Ux, Initial residual = 0.1245756985413487, Final residual = 0.01174761223958021, No Iterations 9
smoothSolver:  Solving for Uy, Initial residual = 0.2051609921668278, Final residual = 0.01961584361139839, No Iterations 10
smoothSolver:  Solving for Uz, Initial residual = 0.2188668786788465, Final residual = 0.02133878289578776, No Iterations 9
[INFO] MomentumPredictor: 3411.598 [ms]
[INFO] MatrixAssemblyPI: 983.571 [ms]
[INFO] MatrixAssemblyPII: 486.924 [ms]
DICPCG:  Solving for p, Initial residual = 0.1188026481682104, Final residual = 0.001156434838991916, No Iterations 186
[INFO] SolveP: 21687.267 [ms]
time step continuity errors : sum local = 0.01290498943659453, global = -0.0009323802742203607, cumulative = 0.0009559576645120804
[INFO] postSolveP: 267.866 [ms]
smoothSolver:  Solving for nuTilda, Initial residual = 0.2092252933396098, Final residual = 0.01313042651494973, No Iterations 2
[INFO] TimeStep: 34489.29 [ms]
ExecutionTime = 189.28 s  ClockTime = 190 s

Time = 4

velocityDampingConstraint velocityDamping damped 0 (0%) of cells
[INFO] MatrixAssemblyU: 4529.886 [ms]
smoothSolver:  Solving for Ux, Initial residual = 0.05389200811950119, Final residual = 0.004960689545814675, No Iterations 11
smoothSolver:  Solving for Uy, Initial residual = 0.1228674647111901, Final residual = 0.01102950581311141, No Iterations 11
smoothSolver:  Solving for Uz, Initial residual = 0.1338006364763494, Final residual = 0.01307838653775546, No Iterations 10
[INFO] MomentumPredictor: 3755.314 [ms]
[INFO] MatrixAssemblyPI: 987.0410000000001 [ms]
[INFO] MatrixAssemblyPII: 489.872 [ms]
DICPCG:  Solving for p, Initial residual = 0.1349669361794328, Final residual = 0.001307997031974311, No Iterations 110
[INFO] SolveP: 12898.723 [ms]
time step continuity errors : sum local = 0.01302489670550391, global = -0.00205517979105262, cumulative = -0.001099222126540539
[INFO] postSolveP: 258.926 [ms]
smoothSolver:  Solving for nuTilda, Initial residual = 0.1247913443526094, Final residual = 0.01050349096656527, No Iterations 2
[INFO] TimeStep: 25962.994 [ms]
ExecutionTime = 218.71 s  ClockTime = 220 s

Time = 5

velocityDampingConstraint velocityDamping damped 328 (0.001733486218361762%) of cells
[INFO] MatrixAssemblyU: 4587.921 [ms]
smoothSolver:  Solving for Ux, Initial residual = 0.04354541847373962, Final residual = 0.004194026970637496, No Iterations 10
smoothSolver:  Solving for Uy, Initial residual = 0.09769587417371128, Final residual = 0.009318518254483009, No Iterations 11
smoothSolver:  Solving for Uz, Initial residual = 0.1135909719082227, Final residual = 0.009560622831372151, No Iterations 11
[INFO] MomentumPredictor: 3751.074 [ms]
[INFO] MatrixAssemblyPI: 995.2619999999999 [ms]
[INFO] MatrixAssemblyPII: 499.8 [ms]
DICPCG:  Solving for p, Initial residual = 0.09741093098380628, Final residual = 0.0009394462657898309, No Iterations 229
[INFO] SolveP: 26638.395 [ms]
time step continuity errors : sum local = 0.007419985028368952, global = -0.0002476817848582698, cumulative = -0.001346903911398809
[INFO] postSolveP: 264.912 [ms]
smoothSolver:  Solving for nuTilda, Initial residual = 0.07087331794157123, Final residual = 0.004308119973900067, No Iterations 3
[INFO] TimeStep: 39874.443 [ms]
ExecutionTime = 261.95 s  ClockTime = 263 s

Time = 6

velocityDampingConstraint velocityDamping damped 0 (0%) of cells
[INFO] MatrixAssemblyU: 4578.608 [ms]
smoothSolver:  Solving for Ux, Initial residual = 0.02997328490977984, Final residual = 0.002655109829473771, No Iterations 12
smoothSolver:  Solving for Uy, Initial residual = 0.07464339641018514, Final residual = 0.006873176596485764, No Iterations 12
smoothSolver:  Solving for Uz, Initial residual = 0.0808418249795891, Final residual = 0.006859492139597658, No Iterations 12
[INFO] MomentumPredictor: 4123.927 [ms]
[INFO] MatrixAssemblyPI: 988.87 [ms]
[INFO] MatrixAssemblyPII: 493.095 [ms]
DICPCG:  Solving for p, Initial residual = 0.09764160102426921, Final residual = 0.0009602827948813228, No Iterations 136
[INFO] SolveP: 15892.46 [ms]
time step continuity errors : sum local = 0.006985373661771638, global = 0.0006744976569034006, cumulative = -0.0006724062544954084
[INFO] postSolveP: 266.101 [ms]
smoothSolver:  Solving for nuTilda, Initial residual = 0.06429331512116113, Final residual = 0.003001876035552294, No Iterations 3
[INFO] TimeStep: 29488.636 [ms]
ExecutionTime = 294.87 s  ClockTime = 297 s

Time = 7

velocityDampingConstraint velocityDamping damped 41 (0.0002166857772952203%) of cells
[INFO] MatrixAssemblyU: 4548.02 [ms]
smoothSolver:  Solving for Ux, Initial residual = 0.0271904716617534, Final residual = 0.002426953283356734, No Iterations 12
smoothSolver:  Solving for Uy, Initial residual = 0.06737614272234717, Final residual = 0.006375369121033619, No Iterations 12
smoothSolver:  Solving for Uz, Initial residual = 0.07108729943588078, Final residual = 0.006174598903686867, No Iterations 12
[INFO] MomentumPredictor: 4125.115 [ms]
[INFO] MatrixAssemblyPI: 994.079 [ms]
[INFO] MatrixAssemblyPII: 464.464 [ms]
DICPCG:  Solving for p, Initial residual = 0.08344343980832261, Final residual = 0.0008214727240715503, No Iterations 122
[INFO] SolveP: 14293.402 [ms]
time step continuity errors : sum local = 0.005982676808832695, global = 0.0009293728478009517, cumulative = 0.0002569665933055432
[INFO] postSolveP: 253.899 [ms]
smoothSolver:  Solving for nuTilda, Initial residual = 0.04909420324588053, Final residual = 0.003228447403827075, No Iterations 3
[INFO] TimeStep: 27797.807 [ms]
ExecutionTime = 326.08 s  ClockTime = 328 s

Time = 8

velocityDampingConstraint velocityDamping damped 0 (0%) of cells
[INFO] MatrixAssemblyU: 4502.853 [ms]
smoothSolver:  Solving for Ux, Initial residual = 0.02311314729767969, Final residual = 0.002136230038972997, No Iterations 12
smoothSolver:  Solving for Uy, Initial residual = 0.05997093780503143, Final residual = 0.005873247036252068, No Iterations 12
smoothSolver:  Solving for Uz, Initial residual = 0.06182645921098481, Final residual = 0.005567658378297916, No Iterations 12
[INFO] MomentumPredictor: 4122.617 [ms]
[INFO] MatrixAssemblyPI: 984.282 [ms]
[INFO] MatrixAssemblyPII: 451.411 [ms]
DICPCG:  Solving for p, Initial residual = 0.07524005307851685, Final residual = 0.0007521115117222516, No Iterations 117
[INFO] SolveP: 13719.118 [ms]
time step continuity errors : sum local = 0.005590579945344252, global = 0.001073009480892037, cumulative = 0.00132997607419758
[INFO] postSolveP: 281.727 [ms]
smoothSolver:  Solving for nuTilda, Initial residual = 0.06537426155353081, Final residual = 0.005859263761912869, No Iterations 2
[INFO] TimeStep: 27110.768 [ms]
ExecutionTime = 356.6 s  ClockTime = 359 s

Time = 9

velocityDampingConstraint velocityDamping damped 0 (0%) of cells
[INFO] MatrixAssemblyU: 4478.904 [ms]
smoothSolver:  Solving for Ux, Initial residual = 0.02035545030221895, Final residual = 0.001898324031542051, No Iterations 12
smoothSolver:  Solving for Uy, Initial residual = 0.05420594580410863, Final residual = 0.005391298541161866, No Iterations 12
smoothSolver:  Solving for Uz, Initial residual = 0.05504916618874098, Final residual = 0.005101268952762459, No Iterations 12
[INFO] MomentumPredictor: 4109.315 [ms]
[INFO] MatrixAssemblyPI: 947.303 [ms]
[INFO] MatrixAssemblyPII: 540.212 [ms]
DICPCG:  Solving for p, Initial residual = 0.06853076120677201, Final residual = 0.0006765508289959882, No Iterations 119
[INFO] SolveP: 13921.786 [ms]
time step continuity errors : sum local = 0.005114227030969993, global = 0.001241098861818474, cumulative = 0.002571074936016054
[INFO] postSolveP: 266.38 [ms]
smoothSolver:  Solving for nuTilda, Initial residual = 0.0441258404346563, Final residual = 0.003200061442422282, No Iterations 3
[INFO] TimeStep: 27376.3 [ms]
ExecutionTime = 387.35 s  ClockTime = 389 s

Time = 10

velocityDampingConstraint velocityDamping damped 0 (0%) of cells
[INFO] MatrixAssemblyU: 4512.303 [ms]
smoothSolver:  Solving for Ux, Initial residual = 0.0183476828273118, Final residual = 0.001724168047938784, No Iterations 12
smoothSolver:  Solving for Uy, Initial residual = 0.05007291493843617, Final residual = 0.004969509645028255, No Iterations 12
smoothSolver:  Solving for Uz, Initial residual = 0.05045977039533928, Final residual = 0.004739273117047252, No Iterations 12
[INFO] MomentumPredictor: 4120.917 [ms]
[INFO] MatrixAssemblyPI: 1002.55 [ms]
[INFO] MatrixAssemblyPII: 484.085 [ms]
DICPCG:  Solving for p, Initial residual = 0.06202619731014759, Final residual = 0.0006202506034453306, No Iterations 226
[INFO] SolveP: 26302.819 [ms]
time step continuity errors : sum local = 0.004679862240075027, global = 0.0001070887226238045, cumulative = 0.002678163658639859
[INFO] postSolveP: 274.933 [ms]
smoothSolver:  Solving for nuTilda, Initial residual = 0.06967847800144777, Final residual = 0.005486396347719669, No Iterations 2
[INFO] TimeStep: 39759.227 [ms]
ExecutionTime = 430.47 s  ClockTime = 433 s

Time = 11

velocityDampingConstraint velocityDamping damped 0 (0%) of cells
[INFO] MatrixAssemblyU: 4530.147 [ms]
smoothSolver:  Solving for Ux, Initial residual = 0.0167290236504696, Final residual = 0.001598454114417796, No Iterations 12
smoothSolver:  Solving for Uy, Initial residual = 0.04758141751402372, Final residual = 0.004693382260106473, No Iterations 12
smoothSolver:  Solving for Uz, Initial residual = 0.04756272362896789, Final residual = 0.004503488607576517, No Iterations 12
[INFO] MomentumPredictor: 4111.307 [ms]
[INFO] MatrixAssemblyPI: 1015.449 [ms]
[INFO] MatrixAssemblyPII: 474.506 [ms]
DICPCG:  Solving for p, Initial residual = 0.0543687040222878, Final residual = 0.000536375227611298, No Iterations 106
[INFO] SolveP: 12411.296 [ms]
time step continuity errors : sum local = 0.004306679378395056, global = -0.0005958454333071286, cumulative = 0.00208231822533273
[INFO] postSolveP: 285.055 [ms]
smoothSolver:  Solving for nuTilda, Initial residual = 0.03912195417214305, Final residual = 0.003025170812747121, No Iterations 3
[INFO] TimeStep: 25915.961 [ms]
ExecutionTime = 459.74 s  ClockTime = 462 s

Time = 12

velocityDampingConstraint velocityDamping damped 0 (0%) of cells
[INFO] MatrixAssemblyU: 4479.033 [ms]
smoothSolver:  Solving for Ux, Initial residual = 0.01551573404294491, Final residual = 0.001511260246538267, No Iterations 12
smoothSolver:  Solving for Uy, Initial residual = 0.04527756815986305, Final residual = 0.004426869237337243, No Iterations 12
smoothSolver:  Solving for Uz, Initial residual = 0.04476570838546464, Final residual = 0.004256644402062636, No Iterations 12
[INFO] MomentumPredictor: 4119.711 [ms]
[INFO] MatrixAssemblyPI: 995.34 [ms]
[INFO] MatrixAssemblyPII: 480.813 [ms]
DICPCG:  Solving for p, Initial residual = 0.05149553138814714, Final residual = 0.0004938633336098542, No Iterations 119
[INFO] SolveP: 13938.754 [ms]
time step continuity errors : sum local = 0.003918726118713496, global = -0.0007941938406540429, cumulative = 0.001288124384678687
[INFO] postSolveP: 254.855 [ms]
smoothSolver:  Solving for nuTilda, Initial residual = 0.06549554865273575, Final residual = 0.005098952287161533, No Iterations 2
[INFO] TimeStep: 27362.96 [ms]
ExecutionTime = 490.49 s  ClockTime = 493 s

Time = 13

velocityDampingConstraint velocityDamping damped 0 (0%) of cells
[INFO] MatrixAssemblyU: 4489.903 [ms]
smoothSolver:  Solving for Ux, Initial residual = 0.01450280129789503, Final residual = 0.001440088637754833, No Iterations 12
smoothSolver:  Solving for Uy, Initial residual = 0.04338118574001983, Final residual = 0.004227641718788589, No Iterations 12
smoothSolver:  Solving for Uz, Initial residual = 0.04293938366215956, Final residual = 0.004108466137712209, No Iterations 12
[INFO] MomentumPredictor: 4113.638 [ms]
[INFO] MatrixAssemblyPI: 985.147 [ms]
[INFO] MatrixAssemblyPII: 493.932 [ms]
DICPCG:  Solving for p, Initial residual = 0.04896568776723513, Final residual = 0.000482065559765488, No Iterations 129
[INFO] SolveP: 15069.439 [ms]
time step continuity errors : sum local = 0.003794980881845315, global = -0.0008451917920749062, cumulative = 0.000442932592603781
[INFO] postSolveP: 275.32 [ms]
smoothSolver:  Solving for nuTilda, Initial residual = 0.03470199214383993, Final residual = 0.002827868676613826, No Iterations 3
[INFO] TimeStep: 28476.024 [ms]
ExecutionTime = 522.3099999999999 s  ClockTime = 525 s

Time = 14

velocityDampingConstraint velocityDamping damped 0 (0%) of cells
[INFO] MatrixAssemblyU: 4481.938 [ms]
smoothSolver:  Solving for Ux, Initial residual = 0.01368819793229155, Final residual = 0.001170792673070572, No Iterations 13
smoothSolver:  Solving for Uy, Initial residual = 0.04156548303872547, Final residual = 0.004066377211640165, No Iterations 12
smoothSolver:  Solving for Uz, Initial residual = 0.04195096316212085, Final residual = 0.00403576706183644, No Iterations 12
[INFO] MomentumPredictor: 4205.6 [ms]
[INFO] MatrixAssemblyPI: 973.4450000000001 [ms]
[INFO] MatrixAssemblyPII: 469.012 [ms]
DICPCG:  Solving for p, Initial residual = 0.04698890769369949, Final residual = 0.0004679696815568617, No Iterations 95
[INFO] SolveP: 11157.516 [ms]
time step continuity errors : sum local = 0.003667814046124986, global = -0.0008358294980650591, cumulative = -0.0003928969054612781
[INFO] postSolveP: 258.025 [ms]
smoothSolver:  Solving for nuTilda, Initial residual = 0.05812935989211444, Final residual = 0.004798862000505032, No Iterations 2
[INFO] TimeStep: 24632.113 [ms]
ExecutionTime = 550.3200000000001 s  ClockTime = 553 s

Time = 15

velocityDampingConstraint velocityDamping damped 0 (0%) of cells
[INFO] MatrixAssemblyU: 4471.207 [ms]
smoothSolver:  Solving for Ux, Initial residual = 0.01282472072486527, Final residual = 0.001107673011598754, No Iterations 13
smoothSolver:  Solving for Uy, Initial residual = 0.04017078246733002, Final residual = 0.003959441919827405, No Iterations 12
smoothSolver:  Solving for Uz, Initial residual = 0.04168925395182888, Final residual = 0.004041104764052475, No Iterations 12
[INFO] MomentumPredictor: 4201.992 [ms]
[INFO] MatrixAssemblyPI: 986.147 [ms]
[INFO] MatrixAssemblyPII: 506.651 [ms]
DICPCG:  Solving for p, Initial residual = 0.04566536482513608, Final residual = 0.0004554939451716686, No Iterations 116
[INFO] SolveP: 13574.402 [ms]
time step continuity errors : sum local = 0.00356500932605435, global = -0.0007077028912461543, cumulative = -0.001100599796707433
[INFO] postSolveP: 261.072 [ms]
smoothSolver:  Solving for nuTilda, Initial residual = 0.03134610916668156, Final residual = 0.00266095908528851, No Iterations 3
[INFO] TimeStep: 27088.693 [ms]
ExecutionTime = 580.74 s  ClockTime = 584 s

Time = 16

velocityDampingConstraint velocityDamping damped 0 (0%) of cells
[INFO] MatrixAssemblyU: 4482.614 [ms]
smoothSolver:  Solving for Ux, Initial residual = 0.01220423798285586, Final residual = 0.001053585272330759, No Iterations 13
smoothSolver:  Solving for Uy, Initial residual = 0.03927047602358433, Final residual = 0.003885664751064821, No Iterations 12
smoothSolver:  Solving for Uz, Initial residual = 0.04153954954664242, Final residual = 0.004030483348267348, No Iterations 12
[INFO] MomentumPredictor: 4220.197 [ms]
[INFO] MatrixAssemblyPI: 977.1 [ms]
[INFO] MatrixAssemblyPII: 492.058 [ms]
DICPCG:  Solving for p, Initial residual = 0.04455366644283851, Final residual = 0.0004439279065587292, No Iterations 90
[INFO] SolveP: 10572.987 [ms]
time step continuity errors : sum local = 0.003471562847013285, global = -0.0005010416244862687, cumulative = -0.001601641421193701
[INFO] postSolveP: 250.831 [ms]
smoothSolver:  Solving for nuTilda, Initial residual = 0.05169061706147045, Final residual = 0.004550795168630772, No Iterations 2
[INFO] TimeStep: 24043.752 [ms]
ExecutionTime = 608.17 s  ClockTime = 611 s

Time = 17

velocityDampingConstraint velocityDamping damped 0 (0%) of cells
[INFO] MatrixAssemblyU: 4442.299 [ms]
smoothSolver:  Solving for Ux, Initial residual = 0.01159130259670451, Final residual = 0.001005775304015654, No Iterations 13
smoothSolver:  Solving for Uy, Initial residual = 0.03875566985069605, Final residual = 0.003861952732410627, No Iterations 12
smoothSolver:  Solving for Uz, Initial residual = 0.04157573161681106, Final residual = 0.004050625995549028, No Iterations 12
[INFO] MomentumPredictor: 4209.074 [ms]
[INFO] MatrixAssemblyPI: 1005.494 [ms]
[INFO] MatrixAssemblyPII: 471.233 [ms]
DICPCG:  Solving for p, Initial residual = 0.04425772466717192, Final residual = 0.0004406456911942171, No Iterations 104
[INFO] SolveP: 12195.885 [ms]
time step continuity errors : sum local = 0.00345610521066725, global = -0.000250782412153809, cumulative = -0.00185242383334751
[INFO] postSolveP: 258.069 [ms]
smoothSolver:  Solving for nuTilda, Initial residual = 0.02888952546579642, Final residual = 0.002512380226076727, No Iterations 3
[INFO] TimeStep: 25665.804 [ms]
ExecutionTime = 637.17 s  ClockTime = 640 s

Time = 18

velocityDampingConstraint velocityDamping damped 0 (0%) of cells
[INFO] MatrixAssemblyU: 4480.758 [ms]
smoothSolver:  Solving for Ux, Initial residual = 0.01125395056231893, Final residual = 0.0009662965899845663, No Iterations 13
smoothSolver:  Solving for Uy, Initial residual = 0.0386453508578019, Final residual = 0.003294070622111245, No Iterations 13
smoothSolver:  Solving for Uz, Initial residual = 0.04177825269861107, Final residual = 0.004050569251709211, No Iterations 12
[INFO] MomentumPredictor: 4305.916 [ms]
[INFO] MatrixAssemblyPI: 993.379 [ms]
[INFO] MatrixAssemblyPII: 459.047 [ms]
DICPCG:  Solving for p, Initial residual = 0.04420980170864167, Final residual = 0.0004392052293422199, No Iterations 103
[INFO] SolveP: 12082.298 [ms]
time step continuity errors : sum local = 0.00346237726437437, global = 3.66233881805286e-05, cumulative = -0.001815800445166981
[INFO] postSolveP: 269.71 [ms]
smoothSolver:  Solving for nuTilda, Initial residual = 0.04636465132774081, Final residual = 0.004300868389411878, No Iterations 2
[INFO] TimeStep: 25677.93 [ms]
ExecutionTime = 666.21 s  ClockTime = 670 s

Time = 19

velocityDampingConstraint velocityDamping damped 0 (0%) of cells
[INFO] MatrixAssemblyU: 4447.115 [ms]
smoothSolver:  Solving for Ux, Initial residual = 0.01090950890966919, Final residual = 0.0009362585709834236, No Iterations 13
smoothSolver:  Solving for Uy, Initial residual = 0.03891961721520899, Final residual = 0.003314365240734851, No Iterations 13
smoothSolver:  Solving for Uz, Initial residual = 0.04256989795670491, Final residual = 0.004101221198825328, No Iterations 12
[INFO] MomentumPredictor: 4292.784 [ms]
[INFO] MatrixAssemblyPI: 980.821 [ms]
[INFO] MatrixAssemblyPII: 470.944 [ms]
DICPCG:  Solving for p, Initial residual = 0.04445894076382683, Final residual = 0.0004393660307179116, No Iterations 114
[INFO] SolveP: 13367.792 [ms]
time step continuity errors : sum local = 0.003483037432511947, global = 0.0003353644958709445, cumulative = -0.001480435949296037
[INFO] postSolveP: 255.837 [ms]
smoothSolver:  Solving for nuTilda, Initial residual = 0.02696114624900673, Final residual = 0.002363556411683388, No Iterations 3
[INFO] TimeStep: 26914.674 [ms]
ExecutionTime = 696.45 s  ClockTime = 700 s

Time = 20

velocityDampingConstraint velocityDamping damped 0 (0%) of cells
[INFO] MatrixAssemblyU: 4457.011 [ms]
smoothSolver:  Solving for Ux, Initial residual = 0.01073505894474117, Final residual = 0.000916810603640548, No Iterations 13
smoothSolver:  Solving for Uy, Initial residual = 0.03929888482914715, Final residual = 0.003911255073070422, No Iterations 12
smoothSolver:  Solving for Uz, Initial residual = 0.04317995416268975, Final residual = 0.004131342402006669, No Iterations 12
[INFO] MomentumPredictor: 4196.847 [ms]
[INFO] MatrixAssemblyPI: 1003.407 [ms]
[INFO] MatrixAssemblyPII: 455.44 [ms]
DICPCG:  Solving for p, Initial residual = 0.04433155425299411, Final residual = 0.0004315194893497412, No Iterations 121
[INFO] SolveP: 14155.969 [ms]
time step continuity errors : sum local = 0.003454284771233559, global = 0.0005952914090233971, cumulative = -0.0008851445402726398
[INFO] postSolveP: 262.303 [ms]
smoothSolver:  Solving for nuTilda, Initial residual = 0.04182967934887727, Final residual = 0.004047236825377199, No Iterations 2
[INFO] TimeStep: 27540.27 [ms]
ExecutionTime = 727.34 s  ClockTime = 731 s

Time = 21

velocityDampingConstraint velocityDamping damped 0 (0%) of cells
[INFO] MatrixAssemblyU: 4450.524 [ms]
smoothSolver:  Solving for Ux, Initial residual = 0.01053432533745362, Final residual = 0.0009025503716089022, No Iterations 13
smoothSolver:  Solving for Uy, Initial residual = 0.03992860460820593, Final residual = 0.003958688625243725, No Iterations 12
smoothSolver:  Solving for Uz, Initial residual = 0.04351411620257554, Final residual = 0.004128764594511481, No Iterations 12
[INFO] MomentumPredictor: 4202.019 [ms]
[INFO] MatrixAssemblyPI: 963.796 [ms]
[INFO] MatrixAssemblyPII: 480.253 [ms]
DICPCG:  Solving for p, Initial residual = 0.04432703619823086, Final residual = 0.0004400860590099857, No Iterations 131
[INFO] SolveP: 15323.029 [ms]
time step continuity errors : sum local = 0.003572481943088996, global = 0.0007847639181235952, cumulative = -0.0001003806221490446
[INFO] postSolveP: 248.017 [ms]
smoothSolver:  Solving for nuTilda, Initial residual = 0.02517066193536326, Final residual = 0.002218505727726387, No Iterations 3
[INFO] TimeStep: 28795.071 [ms]
ExecutionTime = 759.4400000000001 s  ClockTime = 763 s

Time = 22

velocityDampingConstraint velocityDamping damped 0 (0%) of cells
[INFO] MatrixAssemblyU: 4502.7 [ms]
smoothSolver:  Solving for Ux, Initial residual = 0.01049438205408407, Final residual = 0.001045435479255622, No Iterations 12
smoothSolver:  Solving for Uy, Initial residual = 0.04057096814648894, Final residual = 0.00398039418143163, No Iterations 12
smoothSolver:  Solving for Uz, Initial residual = 0.04343312747795235, Final residual = 0.004087544628517162, No Iterations 12
[INFO] MomentumPredictor: 4122.665 [ms]
[INFO] MatrixAssemblyPI: 1006.736 [ms]
[INFO] MatrixAssemblyPII: 463.835 [ms]
DICPCG:  Solving for p, Initial residual = 0.04402402328201906, Final residual = 0.0004355012183774371, No Iterations 232
[INFO] SolveP: 26988.524 [ms]
time step continuity errors : sum local = 0.003592227689838997, global = 1.234625389659819e-05, cumulative = -8.80343682524464e-05
[INFO] postSolveP: 261.714 [ms]
smoothSolver:  Solving for nuTilda, Initial residual = 0.0379710786559555, Final residual = 0.002017922551753565, No Iterations 3
[INFO] TimeStep: 40480.566 [ms]
ExecutionTime = 803.24 s  ClockTime = 807 s

Time = 23

velocityDampingConstraint velocityDamping damped 0 (0%) of cells
[INFO] MatrixAssemblyU: 4427.167 [ms]
smoothSolver:  Solving for Ux, Initial residual = 0.01041294640228506, Final residual = 0.001036532279980741, No Iterations 12
smoothSolver:  Solving for Uy, Initial residual = 0.04137381789289442, Final residual = 0.003985027648811192, No Iterations 12
smoothSolver:  Solving for Uz, Initial residual = 0.04318351958751725, Final residual = 0.004007140064731466, No Iterations 12
[INFO] MomentumPredictor: 4110.098 [ms]
[INFO] MatrixAssemblyPI: 978.982 [ms]
[INFO] MatrixAssemblyPII: 496.614 [ms]
DICPCG:  Solving for p, Initial residual = 0.04241578108569685, Final residual = 0.0004075759375076081, No Iterations 113
[INFO] SolveP: 13241.797 [ms]
time step continuity errors : sum local = 0.00352319342854764, global = -0.0001484647246156514, cumulative = -0.0002364990928680978
[INFO] postSolveP: 268.86 [ms]
smoothSolver:  Solving for nuTilda, Initial residual = 0.02335055482918605, Final residual = 0.002087112376024749, No Iterations 3
[INFO] TimeStep: 26567.868 [ms]
ExecutionTime = 833.14 s  ClockTime = 837 s

Time = 24

velocityDampingConstraint velocityDamping damped 0 (0%) of cells
[INFO] MatrixAssemblyU: 4422.236 [ms]
smoothSolver:  Solving for Ux, Initial residual = 0.01040232894052358, Final residual = 0.001031883158311461, No Iterations 12
smoothSolver:  Solving for Uy, Initial residual = 0.04187332709174254, Final residual = 0.004014653817820116, No Iterations 12
smoothSolver:  Solving for Uz, Initial residual = 0.04254758309717452, Final residual = 0.003919482847668996, No Iterations 12
[INFO] MomentumPredictor: 4116.919 [ms]
[INFO] MatrixAssemblyPI: 988.5359999999999 [ms]
[INFO] MatrixAssemblyPII: 458.394 [ms]
DICPCG:  Solving for p, Initial residual = 0.04252476344397439, Final residual = 0.0004177436434937531, No Iterations 117
[INFO] SolveP: 13728.104 [ms]
time step continuity errors : sum local = 0.003622246334252489, global = -0.0001255105487760523, cumulative = -0.0003620096416441501
[INFO] postSolveP: 250.041 [ms]
smoothSolver:  Solving for nuTilda, Initial residual = 0.0344647276774878, Final residual = 0.001908660239903134, No Iterations 3
[INFO] TimeStep: 27117.398 [ms]
ExecutionTime = 863.61 s  ClockTime = 868 s

Time = 25

velocityDampingConstraint velocityDamping damped 0 (0%) of cells
[INFO] MatrixAssemblyU: 4463.237 [ms]
smoothSolver:  Solving for Ux, Initial residual = 0.01034045670420772, Final residual = 0.0008824343697150963, No Iterations 13
smoothSolver:  Solving for Uy, Initial residual = 0.0426908150839186, Final residual = 0.004108229301758973, No Iterations 12
smoothSolver:  Solving for Uz, Initial residual = 0.0422794127914943, Final residual = 0.003886657092048921, No Iterations 12
[INFO] MomentumPredictor: 4209.37 [ms]
[INFO] MatrixAssemblyPI: 951.369 [ms]
[INFO] MatrixAssemblyPII: 490.685 [ms]
DICPCG:  Solving for p, Initial residual = 0.04215464581366303, Final residual = 0.0004203860316243671, No Iterations 120
[INFO] SolveP: 14048.617 [ms]
time step continuity errors : sum local = 0.003682865262724514, global = -0.0001053859846950572, cumulative = -0.0004673956263392072
[INFO] postSolveP: 249.71 [ms]
smoothSolver:  Solving for nuTilda, Initial residual = 0.02150702891036841, Final residual = 0.001955710306656346, No Iterations 3
[INFO] TimeStep: 27561.093 [ms]
ExecutionTime = 894.49 s  ClockTime = 899 s

Time = 26

velocityDampingConstraint velocityDamping damped 0 (0%) of cells
[INFO] MatrixAssemblyU: 4457.094 [ms]
smoothSolver:  Solving for Ux, Initial residual = 0.01041247103864477, Final residual = 0.001034704427118293, No Iterations 12
smoothSolver:  Solving for Uy, Initial residual = 0.04367721364973397, Final residual = 0.004264319710727129, No Iterations 12
smoothSolver:  Solving for Uz, Initial residual = 0.04235049692459517, Final residual = 0.003933331452746386, No Iterations 12
[INFO] MomentumPredictor: 4136.076 [ms]
[INFO] MatrixAssemblyPI: 991.352 [ms]
[INFO] MatrixAssemblyPII: 460.183 [ms]
DICPCG:  Solving for p, Initial residual = 0.04188769557429613, Final residual = 0.0004086903795634183, No Iterations 115
[INFO] SolveP: 13452.514 [ms]
time step continuity errors : sum local = 0.003618029925875635, global = -2.011816973839209e-05, cumulative = -0.0004875137960775993
[INFO] postSolveP: 272.948 [ms]
smoothSolver:  Solving for nuTilda, Initial residual = 0.03149156309910014, Final residual = 0.001803056530629272, No Iterations 3
[INFO] TimeStep: 26957.142 [ms]
ExecutionTime = 924.8099999999999 s  ClockTime = 929 s

Time = 27

velocityDampingConstraint velocityDamping damped 0 (0%) of cells
[INFO] MatrixAssemblyU: 4423.195 [ms]
smoothSolver:  Solving for Ux, Initial residual = 0.01042391252329737, Final residual = 0.001036462835223377, No Iterations 12
smoothSolver:  Solving for Uy, Initial residual = 0.04472550373762639, Final residual = 0.004433689280523824, No Iterations 12
smoothSolver:  Solving for Uz, Initial residual = 0.04266625486370085, Final residual = 0.0040142209466039, No Iterations 12
[INFO] MomentumPredictor: 4105.958 [ms]
[INFO] MatrixAssemblyPI: 979.018 [ms]
[INFO] MatrixAssemblyPII: 473.566 [ms]
DICPCG:  Solving for p, Initial residual = 0.04228368898502655, Final residual = 0.0004197987052331285, No Iterations 110
[INFO] SolveP: 12898.686 [ms]
time step continuity errors : sum local = 0.003751714925216521, global = 0.0001601411865250096, cumulative = -0.0003273726095525898
[INFO] postSolveP: 264.189 [ms]
smoothSolver:  Solving for nuTilda, Initial residual = 0.01982344979561163, Final residual = 0.001830698574808699, No Iterations 3
[INFO] TimeStep: 26228.876 [ms]
ExecutionTime = 954.38 s  ClockTime = 959 s

Time = 28

velocityDampingConstraint velocityDamping damped 0 (0%) of cells
[INFO] MatrixAssemblyU: 4469.564 [ms]
smoothSolver:  Solving for Ux, Initial residual = 0.01057174763762789, Final residual = 0.001039697161138558, No Iterations 12
smoothSolver:  Solving for Uy, Initial residual = 0.04609693962822595, Final residual = 0.003934631605544484, No Iterations 13
smoothSolver:  Solving for Uz, Initial residual = 0.04367519204730684, Final residual = 0.004126349051851036, No Iterations 12
[INFO] MomentumPredictor: 4209.044 [ms]
[INFO] MatrixAssemblyPI: 988.928 [ms]
[INFO] MatrixAssemblyPII: 484.472 [ms]
DICPCG:  Solving for p, Initial residual = 0.04328457678590033, Final residual = 0.0004298491973247748, No Iterations 108
[INFO] SolveP: 12639.316 [ms]
time step continuity errors : sum local = 0.003883785600497303, global = 0.0003725890119835718, cumulative = 4.521640243098209e-05
[INFO] postSolveP: 280.027 [ms]
smoothSolver:  Solving for nuTilda, Initial residual = 0.02895845699225038, Final residual = 0.001696502467261773, No Iterations 3
[INFO] TimeStep: 26144.541 [ms]
ExecutionTime = 983.85 s  ClockTime = 989 s

Time = 29

velocityDampingConstraint velocityDamping damped 0 (0%) of cells
[INFO] MatrixAssemblyU: 4425.281 [ms]
smoothSolver:  Solving for Ux, Initial residual = 0.01061490721099186, Final residual = 0.00104115703929213, No Iterations 12
smoothSolver:  Solving for Uy, Initial residual = 0.04767785302884441, Final residual = 0.004070979492765501, No Iterations 13
smoothSolver:  Solving for Uz, Initial residual = 0.0450959766390514, Final residual = 0.004266588947984761, No Iterations 12
[INFO] MomentumPredictor: 4196.76 [ms]
[INFO] MatrixAssemblyPI: 1000.362 [ms]
[INFO] MatrixAssemblyPII: 471.515 [ms]
DICPCG:  Solving for p, Initial residual = 0.04425309068331706, Final residual = 0.0004413960760404241, No Iterations 102
[INFO] SolveP: 11991.106 [ms]
time step continuity errors : sum local = 0.004036921208954251, global = 0.0005993683265501614, cumulative = 0.0006445847289811436
[INFO] postSolveP: 263.339 [ms]
smoothSolver:  Solving for nuTilda, Initial residual = 0.01834330768751862, Final residual = 0.001707611672541054, No Iterations 3
[INFO] TimeStep: 25421.881 [ms]
ExecutionTime = 1012.6 s  ClockTime = 1017 s

Time = 30

velocityDampingConstraint velocityDamping damped 0 (0%) of cells
[INFO] MatrixAssemblyU: 4443.229 [ms]
smoothSolver:  Solving for Ux, Initial residual = 0.01081319260961771, Final residual = 0.001046275203299807, No Iterations 12
smoothSolver:  Solving for Uy, Initial residual = 0.04975057631205605, Final residual = 0.004954394377930409, No Iterations 12
smoothSolver:  Solving for Uz, Initial residual = 0.04669296847055709, Final residual = 0.004397717707865639, No Iterations 12
[INFO] MomentumPredictor: 4125.156 [ms]
[INFO] MatrixAssemblyPI: 969.816 [ms]
[INFO] MatrixAssemblyPII: 503.413 [ms]
DICPCG:  Solving for p, Initial residual = 0.04512488708730125, Final residual = 0.0004507764738288069, No Iterations 97
[INFO] SolveP: 11384.063 [ms]
time step continuity errors : sum local = 0.004176510672968202, global = 0.0007999529024267658, cumulative = 0.00144453763140791
[INFO] postSolveP: 266.912 [ms]
smoothSolver:  Solving for nuTilda, Initial residual = 0.02677427885504614, Final residual = 0.001589628067719883, No Iterations 3
[INFO] TimeStep: 24801.914 [ms]
ExecutionTime = 1040.78 s  ClockTime = 1046 s

Time = 31

velocityDampingConstraint velocityDamping damped 0 (0%) of cells
[INFO] MatrixAssemblyU: 4418.692 [ms]
smoothSolver:  Solving for Ux, Initial residual = 0.01086518848312892, Final residual = 0.001050887550596062, No Iterations 12
smoothSolver:  Solving for Uy, Initial residual = 0.05221378074109174, Final residual = 0.005184376482641733, No Iterations 12
smoothSolver:  Solving for Uz, Initial residual = 0.04828456885646808, Final residual = 0.004537572548739302, No Iterations 12
[INFO] MomentumPredictor: 4103.87 [ms]
[INFO] MatrixAssemblyPI: 961.242 [ms]
[INFO] MatrixAssemblyPII: 510.417 [ms]
DICPCG:  Solving for p, Initial residual = 0.04637130433079419, Final residual = 0.0004558979164034876, No Iterations 99
[INFO] SolveP: 11624.398 [ms]
time step continuity errors : sum local = 0.004278080317253899, global = 0.0009400587500090054, cumulative = 0.002384596381416915
[INFO] postSolveP: 269.483 [ms]
smoothSolver:  Solving for nuTilda, Initial residual = 0.01708033690910351, Final residual = 0.00158948370226857, No Iterations 3
[INFO] TimeStep: 24959.732 [ms]
ExecutionTime = 1069.06 s  ClockTime = 1074 s

Time = 32

velocityDampingConstraint velocityDamping damped 0 (0%) of cells
[INFO] MatrixAssemblyU: 4446.023 [ms]
smoothSolver:  Solving for Ux, Initial residual = 0.01098279712770928, Final residual = 0.001057314092131597, No Iterations 12
smoothSolver:  Solving for Uy, Initial residual = 0.05458060425983465, Final residual = 0.005406427560032975, No Iterations 12
smoothSolver:  Solving for Uz, Initial residual = 0.04986587336722845, Final residual = 0.004739939326978651, No Iterations 12
[INFO] MomentumPredictor: 4128.326 [ms]
[INFO] MatrixAssemblyPI: 988.572 [ms]
[INFO] MatrixAssemblyPII: 463.638 [ms]
DICPCG:  Solving for p, Initial residual = 0.0479125430095103, Final residual = 0.0004667259095489604, No Iterations 100
[INFO] SolveP: 11736.6 [ms]
time step continuity errors : sum local = 0.004436374461292951, global = 0.0009984739542403637, cumulative = 0.003383070335657279
[INFO] postSolveP: 259.649 [ms]
smoothSolver:  Solving for nuTilda, Initial residual = 0.02487077482977676, Final residual = 0.001487674100648746, No Iterations 3
[INFO] TimeStep: 25160.625 [ms]
ExecutionTime = 1097.58 s  ClockTime = 1103 s

Time = 33

velocityDampingConstraint velocityDamping damped 0 (0%) of cells
[INFO] MatrixAssemblyU: 4453.775 [ms]
smoothSolver:  Solving for Ux, Initial residual = 0.01092872145734355, Final residual = 0.001063049245386181, No Iterations 12
smoothSolver:  Solving for Uy, Initial residual = 0.05686390177417305, Final residual = 0.005619916062288072, No Iterations 12
smoothSolver:  Solving for Uz, Initial residual = 0.05202284658218197, Final residual = 0.005007066300269482, No Iterations 12
[INFO] MomentumPredictor: 4112.724 [ms]
[INFO] MatrixAssemblyPI: 958.04 [ms]
[INFO] MatrixAssemblyPII: 527.696 [ms]
DICPCG:  Solving for p, Initial residual = 0.0497378222719683, Final residual = 0.0004923019117646225, No Iterations 96
[INFO] SolveP: 11261.485 [ms]
time step continuity errors : sum local = 0.004735496106564601, global = 0.001001160429317085, cumulative = 0.004384230764974364
[INFO] postSolveP: 240.385 [ms]
smoothSolver:  Solving for nuTilda, Initial residual = 0.0159886454834731, Final residual = 0.001480129969232511, No Iterations 3
[INFO] TimeStep: 24662.349 [ms]
ExecutionTime = 1125.58 s  ClockTime = 1131 s

Time = 34

velocityDampingConstraint velocityDamping damped 0 (0%) of cells
[INFO] MatrixAssemblyU: 4440.58 [ms]
smoothSolver:  Solving for Ux, Initial residual = 0.01103610547945615, Final residual = 0.001072534340152331, No Iterations 12
smoothSolver:  Solving for Uy, Initial residual = 0.05932959186421903, Final residual = 0.005861071807480478, No Iterations 12
smoothSolver:  Solving for Uz, Initial residual = 0.0545005787732685, Final residual = 0.005294060847093017, No Iterations 12
[INFO] MomentumPredictor: 4130.683 [ms]
[INFO] MatrixAssemblyPI: 983.696 [ms]
[INFO] MatrixAssemblyPII: 467.298 [ms]
DICPCG:  Solving for p, Initial residual = 0.05187444533204109, Final residual = 0.0005027724888800155, No Iterations 95
[INFO] SolveP: 11175.261 [ms]
time step continuity errors : sum local = 0.004891423001177173, global = 0.0009308877204475232, cumulative = 0.005315118485421886
[INFO] postSolveP: 265.875 [ms]
smoothSolver:  Solving for nuTilda, Initial residual = 0.0232253647440993, Final residual = 0.001393568281830735, No Iterations 3
[INFO] TimeStep: 24592.374 [ms]
ExecutionTime = 1153.54 s  ClockTime = 1159 s

Time = 35

velocityDampingConstraint velocityDamping damped 0 (0%) of cells
[INFO] MatrixAssemblyU: 4447.07 [ms]
smoothSolver:  Solving for Ux, Initial residual = 0.01108973553074404, Final residual = 0.001085600103849, No Iterations 12
smoothSolver:  Solving for Uy, Initial residual = 0.06185357756969857, Final residual = 0.006151572459386768, No Iterations 12
smoothSolver:  Solving for Uz, Initial residual = 0.05702693592409693, Final residual = 0.005560069462307291, No Iterations 12
[INFO] MomentumPredictor: 4109.123 [ms]
[INFO] MatrixAssemblyPI: 994.466 [ms]
[INFO] MatrixAssemblyPII: 499.431 [ms]
DICPCG:  Solving for p, Initial residual = 0.05364054213017839, Final residual = 0.0005301793938422299, No Iterations 93
[INFO] SolveP: 10924.946 [ms]
time step continuity errors : sum local = 0.005217928926023415, global = 0.0008071007513181142, cumulative = 0.006122219236740001
[INFO] postSolveP: 289.881 [ms]
smoothSolver:  Solving for nuTilda, Initial residual = 0.01502011930824214, Final residual = 0.00138249131023296, No Iterations 3
[INFO] TimeStep: 24340.053 [ms]
ExecutionTime = 1181.23 s  ClockTime = 1187 s

Time = 36

velocityDampingConstraint velocityDamping damped 0 (0%) of cells
[INFO] MatrixAssemblyU: 4405.251 [ms]
smoothSolver:  Solving for Ux, Initial residual = 0.01135562926067982, Final residual = 0.001106338305689625, No Iterations 12
smoothSolver:  Solving for Uy, Initial residual = 0.06402867124954928, Final residual = 0.005509405117962938, No Iterations 13
smoothSolver:  Solving for Uz, Initial residual = 0.05959636028956946, Final residual = 0.005807236688957915, No Iterations 12
[INFO] MomentumPredictor: 4199.077 [ms]
[INFO] MatrixAssemblyPI: 990.545 [ms]
[INFO] MatrixAssemblyPII: 472.824 [ms]
DICPCG:  Solving for p, Initial residual = 0.05511947366198335, Final residual = 0.0005440900619776472, No Iterations 92
[INFO] SolveP: 10797.046 [ms]
time step continuity errors : sum local = 0.005402842863185047, global = 0.0006258407031259529, cumulative = 0.006748059939865954
[INFO] postSolveP: 264.624 [ms]
smoothSolver:  Solving for nuTilda, Initial residual = 0.02181303797908042, Final residual = 0.001307632296807001, No Iterations 3
[INFO] TimeStep: 24241.312 [ms]
ExecutionTime = 1208.82 s  ClockTime = 1215 s

Time = 37

velocityDampingConstraint velocityDamping damped 0 (0%) of cells
[INFO] MatrixAssemblyU: 4430.907 [ms]
smoothSolver:  Solving for Ux, Initial residual = 0.0115773365679339, Final residual = 0.001132949308841845, No Iterations 12
smoothSolver:  Solving for Uy, Initial residual = 0.06576164915044078, Final residual = 0.005733948024335893, No Iterations 13
smoothSolver:  Solving for Uz, Initial residual = 0.062255773257268, Final residual = 0.006034622007407828, No Iterations 12
[INFO] MomentumPredictor: 4207.445 [ms]
[INFO] MatrixAssemblyPI: 1010.768 [ms]
[INFO] MatrixAssemblyPII: 493.176 [ms]
DICPCG:  Solving for p, Initial residual = 0.05686486531516, Final residual = 0.000558009509516461, No Iterations 89
[INFO] SolveP: 10450.179 [ms]
time step continuity errors : sum local = 0.005587067843829307, global = 0.0004265491477884495, cumulative = 0.007174609087654403
[INFO] postSolveP: 285.26 [ms]
smoothSolver:  Solving for nuTilda, Initial residual = 0.0142064009480503, Final residual = 0.001295438705954347, No Iterations 3
[INFO] TimeStep: 23937.845 [ms]
ExecutionTime = 1236.1 s  ClockTime = 1242 s

Time = 38

velocityDampingConstraint velocityDamping damped 0 (0%) of cells
[INFO] MatrixAssemblyU: 4475.063 [ms]
smoothSolver:  Solving for Ux, Initial residual = 0.01190171629542784, Final residual = 0.001156741603179785, No Iterations 12
smoothSolver:  Solving for Uy, Initial residual = 0.06730319124088703, Final residual = 0.005916019748322279, No Iterations 13
smoothSolver:  Solving for Uz, Initial residual = 0.0650899282273459, Final residual = 0.006239790274912768, No Iterations 12
[INFO] MomentumPredictor: 4218.113 [ms]
[INFO] MatrixAssemblyPI: 968.397 [ms]
[INFO] MatrixAssemblyPII: 484.64 [ms]
DICPCG:  Solving for p, Initial residual = 0.05753657813922845, Final residual = 0.0005740728267863805, No Iterations 88
[INFO] SolveP: 10356.899 [ms]
time step continuity errors : sum local = 0.005781073594558897, global = 0.000208258924989298, cumulative = 0.007382868012643701
[INFO] postSolveP: 255.4 [ms]
smoothSolver:  Solving for nuTilda, Initial residual = 0.02058472365718298, Final residual = 0.001231826239942711, No Iterations 3
[INFO] TimeStep: 23980.827 [ms]
ExecutionTime = 1263.43 s  ClockTime = 1269 s

Time = 39

velocityDampingConstraint velocityDamping damped 0 (0%) of cells
[INFO] MatrixAssemblyU: 4451.911 [ms]
smoothSolver:  Solving for Ux, Initial residual = 0.01200564947690048, Final residual = 0.001170015735540886, No Iterations 12
smoothSolver:  Solving for Uy, Initial residual = 0.0688114912327303, Final residual = 0.006085188407529863, No Iterations 13
smoothSolver:  Solving for Uz, Initial residual = 0.0676776086472709, Final residual = 0.006467224030864012, No Iterations 12
[INFO] MomentumPredictor: 4203.746 [ms]
[INFO] MatrixAssemblyPI: 1002.665 [ms]
[INFO] MatrixAssemblyPII: 458.744 [ms]
DICPCG:  Solving for p, Initial residual = 0.0576873199959916, Final residual = 0.0005545555808042219, No Iterations 88
[INFO] SolveP: 10347.989 [ms]
time step continuity errors : sum local = 0.005607999344862107, global = -1.962739586463162e-05, cumulative = 0.00736324061677907
[INFO] postSolveP: 282.124 [ms]
smoothSolver:  Solving for nuTilda, Initial residual = 0.01354815094909665, Final residual = 0.001221278970863452, No Iterations 3
[INFO] TimeStep: 23756.055 [ms]
ExecutionTime = 1290.53 s  ClockTime = 1297 s

Time = 40

velocityDampingConstraint velocityDamping damped 0 (0%) of cells
[INFO] MatrixAssemblyU: 4492.253 [ms]
smoothSolver:  Solving for Ux, Initial residual = 0.01215122209473392, Final residual = 0.001181358170217754, No Iterations 12
smoothSolver:  Solving for Uy, Initial residual = 0.07004854029977668, Final residual = 0.006247126937218187, No Iterations 13
smoothSolver:  Solving for Uz, Initial residual = 0.06955826818684148, Final residual = 0.00671110142199974, No Iterations 12
[INFO] MomentumPredictor: 4212.626 [ms]
[INFO] MatrixAssemblyPI: 941.929 [ms]
[INFO] MatrixAssemblyPII: 532.578 [ms]
DICPCG:  Solving for p, Initial residual = 0.05780532312541761, Final residual = 0.0005664836157006938, No Iterations 84
[INFO] SolveP: 9882.08 [ms]
time step continuity errors : sum local = 0.005738955462859891, global = -0.0002401097037096363, cumulative = 0.007123130913069434
[INFO] postSolveP: 264.06 [ms]
smoothSolver:  Solving for nuTilda, Initial residual = 0.01948339214414018, Final residual = 0.001168164009757663, No Iterations 3
[INFO] TimeStep: 23434.616 [ms]
ExecutionTime = 1317.33 s  ClockTime = 1324 s

Time = 41

velocityDampingConstraint velocityDamping damped 0 (0%) of cells
[INFO] MatrixAssemblyU: 4446.929 [ms]
smoothSolver:  Solving for Ux, Initial residual = 0.01209250842045277, Final residual = 0.001192043624201909, No Iterations 12
smoothSolver:  Solving for Uy, Initial residual = 0.07065654692366383, Final residual = 0.006407388034195143, No Iterations 13
smoothSolver:  Solving for Uz, Initial residual = 0.07074179727327357, Final residual = 0.006920435777002876, No Iterations 12
[INFO] MomentumPredictor: 4199.67 [ms]
[INFO] MatrixAssemblyPI: 975.187 [ms]
[INFO] MatrixAssemblyPII: 472.527 [ms]
DICPCG:  Solving for p, Initial residual = 0.05737269905699635, Final residual = 0.0005622382742538601, No Iterations 84
[INFO] SolveP: 9874.434999999999 [ms]
time step continuity errors : sum local = 0.005696129762060519, global = -0.0004377631955358887, cumulative = 0.006685367717533545
[INFO] postSolveP: 268.225 [ms]
smoothSolver:  Solving for nuTilda, Initial residual = 0.01295725643653387, Final residual = 0.00115974757923436, No Iterations 3
[INFO] TimeStep: 23302.932 [ms]
ExecutionTime = 1343.96 s  ClockTime = 1350 s

Time = 42

velocityDampingConstraint velocityDamping damped 0 (0%) of cells
[INFO] MatrixAssemblyU: 4424.735 [ms]
smoothSolver:  Solving for Ux, Initial residual = 0.01213408115244938, Final residual = 0.001199367027390195, No Iterations 12
smoothSolver:  Solving for Uy, Initial residual = 0.07118753753021949, Final residual = 0.006601195270251322, No Iterations 13
smoothSolver:  Solving for Uz, Initial residual = 0.07134591172189857, Final residual = 0.007110663352495055, No Iterations 12
[INFO] MomentumPredictor: 4200.474 [ms]
[INFO] MatrixAssemblyPI: 988.806 [ms]
[INFO] MatrixAssemblyPII: 514.1609999999999 [ms]
DICPCG:  Solving for p, Initial residual = 0.05688231567539253, Final residual = 0.0005651624947903965, No Iterations 81
[INFO] SolveP: 9541.144 [ms]
time step continuity errors : sum local = 0.005718361733624758, global = -0.0006355914495557185, cumulative = 0.006049776267977826
[INFO] postSolveP: 253.018 [ms]
smoothSolver:  Solving for nuTilda, Initial residual = 0.01847422495015275, Final residual = 0.00111344792815375, No Iterations 3
[INFO] TimeStep: 22995.886 [ms]
ExecutionTime = 1370.32 s  ClockTime = 1377 s

Time = 43

velocityDampingConstraint velocityDamping damped 0 (0%) of cells
[INFO] MatrixAssemblyU: 4465.008 [ms]
smoothSolver:  Solving for Ux, Initial residual = 0.01203262587572954, Final residual = 0.001025987674458519, No Iterations 13
smoothSolver:  Solving for Uy, Initial residual = 0.07188893849144495, Final residual = 0.006820256124263677, No Iterations 13
smoothSolver:  Solving for Uz, Initial residual = 0.07120362599158973, Final residual = 0.006162829026995852, No Iterations 13
[INFO] MomentumPredictor: 4380.965 [ms]
[INFO] MatrixAssemblyPI: 1002.821 [ms]
[INFO] MatrixAssemblyPII: 474.488 [ms]
DICPCG:  Solving for p, Initial residual = 0.05625250803423944, Final residual = 0.000552803725758628, No Iterations 85
[INFO] SolveP: 9995.928 [ms]
time step continuity errors : sum local = 0.005572520064957868, global = -0.0008451283007448861, cumulative = 0.00520464796723294
[INFO] postSolveP: 285.284 [ms]
smoothSolver:  Solving for nuTilda, Initial residual = 0.01236673160539582, Final residual = 0.001103829283291307, No Iterations 3
[INFO] TimeStep: 23673.824 [ms]
ExecutionTime = 1397.33 s  ClockTime = 1404 s

Time = 44

velocityDampingConstraint velocityDamping damped 0 (0%) of cells
[INFO] MatrixAssemblyU: 4458.294 [ms]
smoothSolver:  Solving for Ux, Initial residual = 0.0120412543662826, Final residual = 0.001034000817429736, No Iterations 13
smoothSolver:  Solving for Uy, Initial residual = 0.07245230593996906, Final residual = 0.007043704276616146, No Iterations 13
smoothSolver:  Solving for Uz, Initial residual = 0.07040754139228635, Final residual = 0.006222538816978804, No Iterations 13
[INFO] MomentumPredictor: 4395.364 [ms]
[INFO] MatrixAssemblyPI: 971.559 [ms]
[INFO] MatrixAssemblyPII: 510.503 [ms]
DICPCG:  Solving for p, Initial residual = 0.05562891381149872, Final residual = 0.0005546532185858497, No Iterations 98
[INFO] SolveP: 11525.259 [ms]
time step continuity errors : sum local = 0.005546617878889558, global = -0.001037870341510331, cumulative = 0.004166777625722609
[INFO] postSolveP: 263.425 [ms]
smoothSolver:  Solving for nuTilda, Initial residual = 0.01753124251485649, Final residual = 0.001061120500330959, No Iterations 3
[INFO] TimeStep: 25236.5 [ms]
ExecutionTime = 1425.92 s  ClockTime = 1433 s

Time = 45

velocityDampingConstraint velocityDamping damped 0 (0%) of cells
[INFO] MatrixAssemblyU: 4433.897 [ms]
smoothSolver:  Solving for Ux, Initial residual = 0.01189938128058668, Final residual = 0.001043051605877896, No Iterations 13
smoothSolver:  Solving for Uy, Initial residual = 0.07261428041192343, Final residual = 0.007187417078470541, No Iterations 13
smoothSolver:  Solving for Uz, Initial residual = 0.06945143222637463, Final residual = 0.006279256781151812, No Iterations 13
[INFO] MomentumPredictor: 4369.529 [ms]
[INFO] MatrixAssemblyPI: 995.782 [ms]
[INFO] MatrixAssemblyPII: 486.216 [ms]
DICPCG:  Solving for p, Initial residual = 0.0552098933437998, Final residual = 0.0005379137175896634, No Iterations 89
[INFO] SolveP: 10453.187 [ms]
time step continuity errors : sum local = 0.005310611373150938, global = -0.001197136218366668, cumulative = 0.002969641407355941
[INFO] postSolveP: 278.422 [ms]
smoothSolver:  Solving for nuTilda, Initial residual = 0.01180680068755244, Final residual = 0.001050112249706305, No Iterations 3
[INFO] TimeStep: 24097.281 [ms]
ExecutionTime = 1453.36 s  ClockTime = 1460 s

Time = 46

velocityDampingConstraint velocityDamping damped 0 (0%) of cells
[INFO] MatrixAssemblyU: 4496.808 [ms]
smoothSolver:  Solving for Ux, Initial residual = 0.01176778478824429, Final residual = 0.001047252625651134, No Iterations 13
smoothSolver:  Solving for Uy, Initial residual = 0.07241795930963951, Final residual = 0.007238061761182221, No Iterations 13
smoothSolver:  Solving for Uz, Initial residual = 0.06810320737376083, Final residual = 0.006323567103729216, No Iterations 13
[INFO] MomentumPredictor: 4393.982 [ms]
[INFO] MatrixAssemblyPI: 1000.631 [ms]
[INFO] MatrixAssemblyPII: 458.834 [ms]
DICPCG:  Solving for p, Initial residual = 0.05448882300364977, Final residual = 0.0005332673544868218, No Iterations 214
[INFO] SolveP: 24912.741 [ms]
time step continuity errors : sum local = 0.005214197739646827, global = -0.0003037430601165807, cumulative = 0.00266589834723936
[INFO] postSolveP: 275.328 [ms]
smoothSolver:  Solving for nuTilda, Initial residual = 0.01664967711985892, Final residual = 0.001012913379642, No Iterations 3
[INFO] TimeStep: 38659.548 [ms]
ExecutionTime = 1495.34 s  ClockTime = 1502 s

Time = 47

velocityDampingConstraint velocityDamping damped 0 (0%) of cells
[INFO] MatrixAssemblyU: 4455 [ms]
smoothSolver:  Solving for Ux, Initial residual = 0.01172981336116624, Final residual = 0.001053925203289469, No Iterations 13
smoothSolver:  Solving for Uy, Initial residual = 0.07264862517635433, Final residual = 0.00621438358247573, No Iterations 14
smoothSolver:  Solving for Uz, Initial residual = 0.06710237819599264, Final residual = 0.00636920066099444, No Iterations 13
[INFO] MomentumPredictor: 4471.131 [ms]
[INFO] MatrixAssemblyPI: 1009.484 [ms]
[INFO] MatrixAssemblyPII: 480.699 [ms]
DICPCG:  Solving for p, Initial residual = 0.05596365068906221, Final residual = 0.0005585388538804368, No Iterations 84
[INFO] SolveP: 9911.584000000001 [ms]
time step continuity errors : sum local = 0.005217942963319235, global = 0.0006265761870894617, cumulative = 0.003292474534328822
[INFO] postSolveP: 256.012 [ms]
smoothSolver:  Solving for nuTilda, Initial residual = 0.01129015057478571, Final residual = 0.001003376175298473, No Iterations 3
[INFO] TimeStep: 23643.505 [ms]
ExecutionTime = 1522.31 s  ClockTime = 1529 s

Time = 48

velocityDampingConstraint velocityDamping damped 0 (0%) of cells
[INFO] MatrixAssemblyU: 4461.832 [ms]
smoothSolver:  Solving for Ux, Initial residual = 0.01164525665421252, Final residual = 0.001059367833817211, No Iterations 13
smoothSolver:  Solving for Uy, Initial residual = 0.07171065374460622, Final residual = 0.006160401270811552, No Iterations 14
smoothSolver:  Solving for Uz, Initial residual = 0.06552921678859594, Final residual = 0.006342330251951232, No Iterations 13
[INFO] MomentumPredictor: 4486.999 [ms]
[INFO] MatrixAssemblyPI: 966.819 [ms]
[INFO] MatrixAssemblyPII: 473.268 [ms]
DICPCG:  Solving for p, Initial residual = 0.05502519244340626, Final residual = 0.0005474835735373044, No Iterations 129
[INFO] SolveP: 15062.435 [ms]
time step continuity errors : sum local = 0.005094732913053307, global = 0.001043695176702376, cumulative = 0.004336169711031198
[INFO] postSolveP: 281.288 [ms]
smoothSolver:  Solving for nuTilda, Initial residual = 0.01587290991772721, Final residual = 0.0009719636463597827, No Iterations 3
[INFO] TimeStep: 28874.659 [ms]
ExecutionTime = 1554.54 s  ClockTime = 1562 s

Time = 49

velocityDampingConstraint velocityDamping damped 0 (0%) of cells
[INFO] MatrixAssemblyU: 4460.464 [ms]
smoothSolver:  Solving for Ux, Initial residual = 0.01151301826724694, Final residual = 0.00106493404480164, No Iterations 13
smoothSolver:  Solving for Uy, Initial residual = 0.07113536344077462, Final residual = 0.006145619654293047, No Iterations 14
smoothSolver:  Solving for Uz, Initial residual = 0.06462973351019653, Final residual = 0.006340661901978898, No Iterations 13
[INFO] MomentumPredictor: 4472.241 [ms]
[INFO] MatrixAssemblyPI: 955.2910000000001 [ms]
[INFO] MatrixAssemblyPII: 551.417 [ms]
DICPCG:  Solving for p, Initial residual = 0.05389169850094561, Final residual = 0.0005365650591547887, No Iterations 93
[INFO] SolveP: 10931.332 [ms]
time step continuity errors : sum local = 0.005026613202023049, global = 0.001272080641387837, cumulative = 0.005608250352419035
[INFO] postSolveP: 263.334 [ms]
smoothSolver:  Solving for nuTilda, Initial residual = 0.01086081192065451, Final residual = 0.0009658938625380926, No Iterations 3
[INFO] TimeStep: 24681.974 [ms]
ExecutionTime = 1582.56 s  ClockTime = 1590 s

Time = 50

velocityDampingConstraint velocityDamping damped 0 (0%) of cells
[INFO] MatrixAssemblyU: 4460.337 [ms]
smoothSolver:  Solving for Ux, Initial residual = 0.01148736730104182, Final residual = 0.001065259793543992, No Iterations 13
smoothSolver:  Solving for Uy, Initial residual = 0.06972808477013495, Final residual = 0.006034838868687919, No Iterations 14
smoothSolver:  Solving for Uz, Initial residual = 0.0636605110872878, Final residual = 0.006291708789738216, No Iterations 13
[INFO] MomentumPredictor: 4481.496 [ms]
[INFO] MatrixAssemblyPI: 1010.819 [ms]
[INFO] MatrixAssemblyPII: 478.581 [ms]
DICPCG:  Solving for p, Initial residual = 0.05319544244757893, Final residual = 0.0005319013866486381, No Iterations 215
[INFO] SolveP: 25033.768 [ms]
time step continuity errors : sum local = 0.004970201376937961, global = -8.665054060430319e-07, cumulative = 0.005607383847012992
[INFO] postSolveP: 250.3 [ms]
smoothSolver:  Solving for nuTilda, Initial residual = 0.0151890473941315, Final residual = 0.0009398276414975035, No Iterations 3
[INFO] TimeStep: 38837.153 [ms]
ExecutionTime = 1624.71 s  ClockTime = 1632 s

End

Finalising parallel run
