/*---------------------------------------------------------------------------*\
| =========                 |                                                 |
| \\      /  F ield         | OpenFOAM: The Open Source CFD Toolbox           |
|  \\    /   O peration     | Version:  2306                                  |
|   \\  /    A nd           | Website:  www.openfoam.com                      |
|    \\/     M anipulation  |                                                 |
\*---------------------------------------------------------------------------*/
Build  : a6e826bd55-20230630 OPENFOAM=2306 version=v2306
Arch   : "LSB;label=32;scalar=64"
Exec   : icoFoam -parallel -case /tmp/lidDrivenCavity3D/workspace/ee7cdfa8491ffeadc1d3c1d77c9363de/case
Date   : Dec 09 2023
Time   : 09:20:59
Host   : nla-gpu2.ianm.kit.edu
PID    : 268616
I/O    : uncollated
Case   : /tmp/lidDrivenCavity3D/workspace/ee7cdfa8491ffeadc1d3c1d77c9363de/case
nProcs : 8
Hosts  :
(
    (nla-gpu2.ianm.kit.edu 8)
)
Pstream initialized with:
    floatTransfer      : false
    nProcsSimpleSum    : 0
    nonBlockingExchange: 0 (tuning: 0)
    exchange algorithm : -1
    commsType          : nonBlocking
    polling iterations : 0
trapFpe: Floating point exception trapping enabled (FOAM_SIGFPE).
fileModificationChecking : Monitoring run-time modified files using timeStampMaster (fileModificationSkew 5, maxFileModificationPolls 20)
allowSystemOperations : Allowing user-supplied system call operations

// * * * * * * * * * * * * * * * * * * * * * * * * * * * * * * * * * * * * * //
Create time

--> FOAM Warning : 
    From void* Foam::dlLibraryTable::openLibrary(const Foam::fileName&, bool)
    in file db/dynamicLibrary/dlLibraryTable/dlLibraryTable.C at line 188
    Could not load "libpetscFoam.so"
libpetscFoam.so: cannot open shared object file: No such file or directory
Create mesh for time = 0


PISO: Operating solver in PISO mode

Reading transportProperties

Reading field p

Reading field U

Reading/calculating face flux field phi


Starting time loop

Time = 0.0005

Courant Number mean: 8.62851e-18 max: 8.67362e-15
[INFO] MatrixAssemblyU: 14.223 [ms]
DILUPBiCGStab:  Solving for Ux, Initial residual = 1, Final residual = 0.0025649, No Iterations 5
DILUPBiCGStab:  Solving for Uy:  solution singularity
DILUPBiCGStab:  Solving for Uz:  solution singularity
[INFO] MomentumPredictor: 58.519 [ms]
[INFO] MatrixAssemblyPI: 11.018 [ms]
[INFO] AdjustPhi: 0.898 [ms]
[INFO] ConstrainPressure: 0.01 [ms]
[INFO] MatrixAssemblyPII: 3.341 [ms]
GAMG:  Solving for p, Initial residual = 1, Final residual = 9.26573e-05, No Iterations 32
[INFO] SolveP: 381.353 [ms]
time step continuity errors : sum local = 1.99915e-08, global = 3.71933e-21, cumulative = 3.71933e-21
[INFO] ContinuityError: 2.136 [ms]
[INFO] CorrectBoundary: 0.091 [ms]
[INFO] PISOStep: 403.1 [ms]
[INFO] MatrixAssemblyPI: 10.663 [ms]
[INFO] AdjustPhi: 0.545 [ms]
[INFO] ConstrainPressure: 0.003 [ms]
[INFO] MatrixAssemblyPII: 3.957 [ms]
GAMG:  Solving for p, Initial residual = 0.731063, Final residual = 8.48849e-05, No Iterations 29
[INFO] SolveP: 330.004 [ms]
time step continuity errors : sum local = 2.42353e-08, global = -3.38902e-21, cumulative = 3.3031e-22
[INFO] ContinuityError: 2.299 [ms]
[INFO] CorrectBoundary: 0.508 [ms]
[INFO] PISOStep: 352.531 [ms]
[INFO] TimeStep: 830.832 [ms]
ExecutionTime = 1.13 s  ClockTime = 1 s

Time = 0.001

Courant Number mean: 0.0215342 max: 0.377097
[INFO] MatrixAssemblyU: 8.513 [ms]
DILUPBiCGStab:  Solving for Ux, Initial residual = 0.150354, Final residual = 0.00113131, No Iterations 5
DILUPBiCGStab:  Solving for Uy, Initial residual = 0.368164, Final residual = 0.00224403, No Iterations 5
DILUPBiCGStab:  Solving for Uz, Initial residual = 0.986106, Final residual = 0.00632036, No Iterations 5
[INFO] MomentumPredictor: 107.016 [ms]
[INFO] MatrixAssemblyPI: 13.004 [ms]
[INFO] AdjustPhi: 0.567 [ms]
[INFO] ConstrainPressure: 0.003 [ms]
[INFO] MatrixAssemblyPII: 3.835 [ms]
GAMG:  Solving for p, Initial residual = 0.690654, Final residual = 9.8517e-05, No Iterations 27
[INFO] SolveP: 315.606 [ms]
time step continuity errors : sum local = 3.14198e-08, global = -1.06551e-22, cumulative = 2.23759e-22
[INFO] ContinuityError: 2.256 [ms]
[INFO] CorrectBoundary: 0.377 [ms]
[INFO] PISOStep: 340.254 [ms]
[INFO] MatrixAssemblyPI: 11.84 [ms]
[INFO] AdjustPhi: 1.212 [ms]
[INFO] ConstrainPressure: 0.003 [ms]
[INFO] MatrixAssemblyPII: 3.393 [ms]
GAMG:  Solving for p, Initial residual = 0.619814, Final residual = 9.95293e-05, No Iterations 27
[INFO] SolveP: 305.032 [ms]
time step continuity errors : sum local = 3.24094e-08, global = -2.13316e-21, cumulative = -1.9094e-21
[INFO] ContinuityError: 2.243 [ms]
[INFO] CorrectBoundary: 0.646 [ms]
[INFO] PISOStep: 328.952 [ms]
[INFO] TimeStep: 786.653 [ms]
ExecutionTime = 1.91 s  ClockTime = 2 s

Time = 0.0015

Courant Number mean: 0.0324936 max: 0.441255
[INFO] MatrixAssemblyU: 8.533 [ms]
DILUPBiCGStab:  Solving for Ux, Initial residual = 0.0531002, Final residual = 0.000326349, No Iterations 5
DILUPBiCGStab:  Solving for Uy, Initial residual = 0.124681, Final residual = 0.000558108, No Iterations 5
DILUPBiCGStab:  Solving for Uz, Initial residual = 0.597133, Final residual = 0.00456085, No Iterations 5
[INFO] MomentumPredictor: 106.252 [ms]
[INFO] MatrixAssemblyPI: 12.948 [ms]
[INFO] AdjustPhi: 0.527 [ms]
[INFO] ConstrainPressure: 0.003 [ms]
[INFO] MatrixAssemblyPII: 3.864 [ms]
GAMG:  Solving for p, Initial residual = 0.632931, Final residual = 9.07414e-05, No Iterations 26
[INFO] SolveP: 299.237 [ms]
time step continuity errors : sum local = 2.09265e-08, global = 8.63848e-22, cumulative = -1.04555e-21
[INFO] ContinuityError: 2.182 [ms]
[INFO] CorrectBoundary: 0.076 [ms]
[INFO] PISOStep: 323.151 [ms]
[INFO] MatrixAssemblyPI: 11.736 [ms]
[INFO] AdjustPhi: 1.608 [ms]
[INFO] ConstrainPressure: 0.002 [ms]
[INFO] MatrixAssemblyPII: 3.366 [ms]
GAMG:  Solving for p, Initial residual = 0.580533, Final residual = 8.69997e-05, No Iterations 26
[INFO] SolveP: 291.338 [ms]
time step continuity errors : sum local = 1.95372e-08, global = 2.13209e-21, cumulative = 1.08654e-21
[INFO] ContinuityError: 1.777 [ms]
[INFO] CorrectBoundary: 0.073 [ms]
[INFO] PISOStep: 314.87 [ms]
[INFO] TimeStep: 754.65 [ms]
ExecutionTime = 2.66 s  ClockTime = 3 s

Time = 0.002

Courant Number mean: 0.0388951 max: 0.452981
[INFO] MatrixAssemblyU: 9.317 [ms]
DILUPBiCGStab:  Solving for Ux, Initial residual = 0.0319, Final residual = 0.000167531, No Iterations 5
DILUPBiCGStab:  Solving for Uy, Initial residual = 0.0813693, Final residual = 0.00038496, No Iterations 5
DILUPBiCGStab:  Solving for Uz, Initial residual = 0.309388, Final residual = 0.00185157, No Iterations 5
[INFO] MomentumPredictor: 107.471 [ms]
[INFO] MatrixAssemblyPI: 11.679 [ms]
[INFO] AdjustPhi: 2.116 [ms]
[INFO] ConstrainPressure: 0.003 [ms]
[INFO] MatrixAssemblyPII: 3.435 [ms]
GAMG:  Solving for p, Initial residual = 0.412939, Final residual = 9.12363e-05, No Iterations 21
[INFO] SolveP: 235.699 [ms]
time step continuity errors : sum local = 1.78792e-08, global = 7.0114e-21, cumulative = 8.09794e-21
[INFO] ContinuityError: 1.759 [ms]
[INFO] CorrectBoundary: 0.077 [ms]
[INFO] PISOStep: 260.687 [ms]
[INFO] MatrixAssemblyPI: 11.505 [ms]
[INFO] AdjustPhi: 0.53 [ms]
[INFO] ConstrainPressure: 0.002 [ms]
[INFO] MatrixAssemblyPII: 3.865 [ms]
GAMG:  Solving for p, Initial residual = 0.351005, Final residual = 9.85527e-05, No Iterations 20
[INFO] SolveP: 223.19 [ms]
time step continuity errors : sum local = 1.96749e-08, global = 2.92902e-21, cumulative = 1.1027e-20
[INFO] ContinuityError: 1.666 [ms]
[INFO] CorrectBoundary: 0.116 [ms]
[INFO] PISOStep: 244.943 [ms]
[INFO] TimeStep: 624.155 [ms]
ExecutionTime = 3.29 s  ClockTime = 4 s

Time = 0.0025

Courant Number mean: 0.0439475 max: 0.45965
[INFO] MatrixAssemblyU: 8.487 [ms]
DILUPBiCGStab:  Solving for Ux, Initial residual = 0.0235019, Final residual = 0.00010479, No Iterations 5
DILUPBiCGStab:  Solving for Uy, Initial residual = 0.0515214, Final residual = 0.000235053, No Iterations 5
DILUPBiCGStab:  Solving for Uz, Initial residual = 0.131798, Final residual = 0.00071678, No Iterations 5
[INFO] MomentumPredictor: 111.268 [ms]
[INFO] MatrixAssemblyPI: 11.999 [ms]
[INFO] AdjustPhi: 1.835 [ms]
[INFO] ConstrainPressure: 0.003 [ms]
[INFO] MatrixAssemblyPII: 3.418 [ms]
GAMG:  Solving for p, Initial residual = 0.315508, Final residual = 9.20749e-05, No Iterations 25
[INFO] SolveP: 282.357 [ms]
time step continuity errors : sum local = 1.4948e-08, global = 2.11529e-21, cumulative = 1.31423e-20
[INFO] ContinuityError: 1.782 [ms]
[INFO] CorrectBoundary: 0.079 [ms]
[INFO] PISOStep: 306.211 [ms]
[INFO] MatrixAssemblyPI: 11.737 [ms]
[INFO] AdjustPhi: 0.565 [ms]
[INFO] ConstrainPressure: 0.003 [ms]
[INFO] MatrixAssemblyPII: 3.397 [ms]
GAMG:  Solving for p, Initial residual = 0.270123, Final residual = 9.26161e-05, No Iterations 25
[INFO] SolveP: 277.384 [ms]
time step continuity errors : sum local = 1.49603e-08, global = -1.19108e-21, cumulative = 1.19512e-20
[INFO] ContinuityError: 1.753 [ms]
[INFO] CorrectBoundary: 0.087 [ms]
[INFO] PISOStep: 299.084 [ms]
[INFO] TimeStep: 726.854 [ms]
ExecutionTime = 4.01 s  ClockTime = 4 s

Time = 0.003

Courant Number mean: 0.0479874 max: 0.463888
[INFO] MatrixAssemblyU: 8.64 [ms]
DILUPBiCGStab:  Solving for Ux, Initial residual = 0.017891, Final residual = 7.93857e-05, No Iterations 5
DILUPBiCGStab:  Solving for Uy, Initial residual = 0.0401319, Final residual = 0.000115993, No Iterations 5
DILUPBiCGStab:  Solving for Uz, Initial residual = 0.107902, Final residual = 0.000564576, No Iterations 5
[INFO] MomentumPredictor: 108.324 [ms]
[INFO] MatrixAssemblyPI: 11.095 [ms]
[INFO] AdjustPhi: 1.956 [ms]
[INFO] ConstrainPressure: 0.003 [ms]
[INFO] MatrixAssemblyPII: 3.371 [ms]
GAMG:  Solving for p, Initial residual = 0.197784, Final residual = 9.41091e-05, No Iterations 25
[INFO] SolveP: 281.555 [ms]
time step continuity errors : sum local = 1.47493e-08, global = 7.02709e-22, cumulative = 1.26539e-20
[INFO] ContinuityError: 1.763 [ms]
[INFO] CorrectBoundary: 0.082 [ms]
[INFO] PISOStep: 306.112 [ms]
[INFO] MatrixAssemblyPI: 11.525 [ms]
[INFO] AdjustPhi: 0.524 [ms]
[INFO] ConstrainPressure: 0.003 [ms]
[INFO] MatrixAssemblyPII: 3.865 [ms]
GAMG:  Solving for p, Initial residual = 0.164501, Final residual = 9.65513e-05, No Iterations 23
[INFO] SolveP: 255.172 [ms]
time step continuity errors : sum local = 1.51459e-08, global = -6.87684e-21, cumulative = 5.77706e-21
[INFO] ContinuityError: 1.714 [ms]
[INFO] CorrectBoundary: 0.098 [ms]
[INFO] PISOStep: 276.969 [ms]
[INFO] TimeStep: 701.828 [ms]
ExecutionTime = 4.7 s  ClockTime = 5 s

Time = 0.0035

Courant Number mean: 0.0513963 max: 0.466764
[INFO] MatrixAssemblyU: 8.481 [ms]
DILUPBiCGStab:  Solving for Ux, Initial residual = 0.0146313, Final residual = 5.75291e-05, No Iterations 5
DILUPBiCGStab:  Solving for Uy, Initial residual = 0.031767, Final residual = 9.9396e-05, No Iterations 5
DILUPBiCGStab:  Solving for Uz, Initial residual = 0.0766523, Final residual = 0.000355968, No Iterations 5
[INFO] MomentumPredictor: 110.506 [ms]
[INFO] MatrixAssemblyPI: 11.617 [ms]
[INFO] AdjustPhi: 2.535 [ms]
[INFO] ConstrainPressure: 0.003 [ms]
[INFO] MatrixAssemblyPII: 3.38 [ms]
GAMG:  Solving for p, Initial residual = 0.140556, Final residual = 9.90062e-05, No Iterations 23
[INFO] SolveP: 260.837 [ms]
time step continuity errors : sum local = 1.47922e-08, global = 5.85162e-21, cumulative = 1.16287e-20
[INFO] ContinuityError: 1.763 [ms]
[INFO] CorrectBoundary: 0.079 [ms]
[INFO] PISOStep: 285.114 [ms]
[INFO] MatrixAssemblyPI: 11.733 [ms]
[INFO] AdjustPhi: 0.569 [ms]
[INFO] ConstrainPressure: 0.002 [ms]
[INFO] MatrixAssemblyPII: 3.421 [ms]
GAMG:  Solving for p, Initial residual = 0.117653, Final residual = 9.9517e-05, No Iterations 23
[INFO] SolveP: 255.448 [ms]
time step continuity errors : sum local = 1.48535e-08, global = 7.24971e-21, cumulative = 1.88784e-20
[INFO] ContinuityError: 1.657 [ms]
[INFO] CorrectBoundary: 0.098 [ms]
[INFO] PISOStep: 277.063 [ms]
[INFO] TimeStep: 682.91 [ms]
ExecutionTime = 5.38 s  ClockTime = 6 s

Time = 0.004

Courant Number mean: 0.054335 max: 0.468973
[INFO] MatrixAssemblyU: 8.419 [ms]
DILUPBiCGStab:  Solving for Ux, Initial residual = 0.0122817, Final residual = 4.51281e-05, No Iterations 5
DILUPBiCGStab:  Solving for Uy, Initial residual = 0.0265171, Final residual = 6.38385e-05, No Iterations 5
DILUPBiCGStab:  Solving for Uz, Initial residual = 0.0670939, Final residual = 0.000237318, No Iterations 5
[INFO] MomentumPredictor: 103.058 [ms]
[INFO] MatrixAssemblyPI: 10.702 [ms]
[INFO] AdjustPhi: 0.569 [ms]
[INFO] ConstrainPressure: 0.003 [ms]
[INFO] MatrixAssemblyPII: 3.554 [ms]
GAMG:  Solving for p, Initial residual = 0.0923207, Final residual = 9.23622e-05, No Iterations 25
[INFO] SolveP: 284.324 [ms]
time step continuity errors : sum local = 1.34777e-08, global = 5.85596e-21, cumulative = 2.47343e-20
[INFO] ContinuityError: 2.241 [ms]
[INFO] CorrectBoundary: 0.678 [ms]
[INFO] PISOStep: 306.593 [ms]
[INFO] MatrixAssemblyPI: 10.733 [ms]
[INFO] AdjustPhi: 1.365 [ms]
[INFO] ConstrainPressure: 0.003 [ms]
[INFO] MatrixAssemblyPII: 3.593 [ms]
GAMG:  Solving for p, Initial residual = 0.0765521, Final residual = 8.94774e-05, No Iterations 23
[INFO] SolveP: 256.581 [ms]
time step continuity errors : sum local = 1.30742e-08, global = -2.10996e-22, cumulative = 2.45233e-20
[INFO] ContinuityError: 1.754 [ms]
[INFO] CorrectBoundary: 0.082 [ms]
[INFO] PISOStep: 280.317 [ms]
[INFO] TimeStep: 700.163 [ms]
ExecutionTime = 6.08 s  ClockTime = 6 s

Time = 0.0045

Courant Number mean: 0.0569121 max: 0.470676
[INFO] MatrixAssemblyU: 9.5 [ms]
DILUPBiCGStab:  Solving for Ux, Initial residual = 0.0105263, Final residual = 3.57214e-05, No Iterations 5
DILUPBiCGStab:  Solving for Uy, Initial residual = 0.0226767, Final residual = 5.87026e-05, No Iterations 5
DILUPBiCGStab:  Solving for Uz, Initial residual = 0.0564019, Final residual = 0.000180976, No Iterations 5
[INFO] MomentumPredictor: 102.222 [ms]
[INFO] MatrixAssemblyPI: 10.776 [ms]
[INFO] AdjustPhi: 0.573 [ms]
[INFO] ConstrainPressure: 0.003 [ms]
[INFO] MatrixAssemblyPII: 3.625 [ms]
GAMG:  Solving for p, Initial residual = 0.0682124, Final residual = 9.11589e-05, No Iterations 23
[INFO] SolveP: 257.306 [ms]
time step continuity errors : sum local = 1.31404e-08, global = 1.13071e-20, cumulative = 3.58304e-20
[INFO] ContinuityError: 1.792 [ms]
[INFO] CorrectBoundary: 0.111 [ms]
[INFO] PISOStep: 278.356 [ms]
[INFO] MatrixAssemblyPI: 10.585 [ms]
[INFO] AdjustPhi: 0.592 [ms]
[INFO] ConstrainPressure: 0.003 [ms]
[INFO] MatrixAssemblyPII: 3.376 [ms]
GAMG:  Solving for p, Initial residual = 0.0570808, Final residual = 9.05347e-05, No Iterations 22
[INFO] SolveP: 251.105 [ms]
time step continuity errors : sum local = 1.29985e-08, global = -3.35541e-21, cumulative = 3.2475e-20
[INFO] ContinuityError: 2.474 [ms]
[INFO] CorrectBoundary: 0.267 [ms]
[INFO] PISOStep: 272.747 [ms]
[INFO] TimeStep: 664.622 [ms]
ExecutionTime = 6.74 s  ClockTime = 7 s

Time = 0.005

Courant Number mean: 0.059207 max: 0.472068
[INFO] MatrixAssemblyU: 8.317 [ms]
DILUPBiCGStab:  Solving for Ux, Initial residual = 0.00921677, Final residual = 3.00612e-05, No Iterations 5
DILUPBiCGStab:  Solving for Uy, Initial residual = 0.019729, Final residual = 4.39886e-05, No Iterations 5
DILUPBiCGStab:  Solving for Uz, Initial residual = 0.0497668, Final residual = 0.00013902, No Iterations 5
[INFO] MomentumPredictor: 105.499 [ms]
[INFO] MatrixAssemblyPI: 10.683 [ms]
[INFO] AdjustPhi: 0.8 [ms]
[INFO] ConstrainPressure: 0.003 [ms]
[INFO] MatrixAssemblyPII: 3.545 [ms]
GAMG:  Solving for p, Initial residual = 0.0463355, Final residual = 8.76825e-05, No Iterations 21
[INFO] SolveP: 238.889 [ms]
time step continuity errors : sum local = 1.24742e-08, global = 1.98329e-23, cumulative = 3.24948e-20
[INFO] ContinuityError: 1.842 [ms]
[INFO] CorrectBoundary: 0.078 [ms]
[INFO] PISOStep: 260.498 [ms]
[INFO] MatrixAssemblyPI: 11.732 [ms]
[INFO] AdjustPhi: 0.539 [ms]
[INFO] ConstrainPressure: 0.002 [ms]
[INFO] MatrixAssemblyPII: 3.423 [ms]
GAMG:  Solving for p, Initial residual = 0.0392646, Final residual = 8.73386e-05, No Iterations 21
[INFO] SolveP: 233.964 [ms]
time step continuity errors : sum local = 1.24455e-08, global = -1.55793e-21, cumulative = 3.09369e-20
[INFO] ContinuityError: 1.627 [ms]
[INFO] CorrectBoundary: 0.095 [ms]
[INFO] PISOStep: 255.463 [ms]
[INFO] TimeStep: 631.531 [ms]
ExecutionTime = 7.37 s  ClockTime = 8 s

Time = 0.0055

Courant Number mean: 0.0612665 max: 0.473215
[INFO] MatrixAssemblyU: 8.564 [ms]
DILUPBiCGStab:  Solving for Ux, Initial residual = 0.00813564, Final residual = 2.51872e-05, No Iterations 5
DILUPBiCGStab:  Solving for Uy, Initial residual = 0.0174503, Final residual = 3.93112e-05, No Iterations 5
DILUPBiCGStab:  Solving for Uz, Initial residual = 0.0443464, Final residual = 0.000117946, No Iterations 5
[INFO] MomentumPredictor: 102.808 [ms]
[INFO] MatrixAssemblyPI: 10.683 [ms]
[INFO] AdjustPhi: 0.581 [ms]
[INFO] ConstrainPressure: 0.003 [ms]
[INFO] MatrixAssemblyPII: 3.602 [ms]
GAMG:  Solving for p, Initial residual = 0.0366607, Final residual = 8.70706e-05, No Iterations 22
[INFO] SolveP: 246.899 [ms]
time step continuity errors : sum local = 1.23316e-08, global = 1.51054e-21, cumulative = 3.24475e-20
[INFO] ContinuityError: 1.837 [ms]
[INFO] CorrectBoundary: 0.095 [ms]
[INFO] PISOStep: 267.907 [ms]
[INFO] MatrixAssemblyPI: 10.594 [ms]
[INFO] AdjustPhi: 0.633 [ms]
[INFO] ConstrainPressure: 0.003 [ms]
[INFO] MatrixAssemblyPII: 3.779 [ms]
GAMG:  Solving for p, Initial residual = 0.0312963, Final residual = 8.74367e-05, No Iterations 23
[INFO] SolveP: 260.146 [ms]
time step continuity errors : sum local = 1.24099e-08, global = -3.07176e-21, cumulative = 2.93757e-20
[INFO] ContinuityError: 2.467 [ms]
[INFO] CorrectBoundary: 0.111 [ms]
[INFO] PISOStep: 282.268 [ms]
[INFO] TimeStep: 663.371 [ms]
ExecutionTime = 8.03 s  ClockTime = 8 s

Time = 0.006

Courant Number mean: 0.0631377 max: 0.47419
[INFO] MatrixAssemblyU: 8.523 [ms]
DILUPBiCGStab:  Solving for Ux, Initial residual = 0.00728627, Final residual = 2.20604e-05, No Iterations 5
DILUPBiCGStab:  Solving for Uy, Initial residual = 0.0155776, Final residual = 3.38444e-05, No Iterations 5
DILUPBiCGStab:  Solving for Uz, Initial residual = 0.0399937, Final residual = 9.99487e-05, No Iterations 5
[INFO] MomentumPredictor: 103.661 [ms]
[INFO] MatrixAssemblyPI: 10.69 [ms]
[INFO] AdjustPhi: 1.019 [ms]
[INFO] ConstrainPressure: 0.003 [ms]
[INFO] MatrixAssemblyPII: 3.525 [ms]
GAMG:  Solving for p, Initial residual = 0.0270361, Final residual = 9.09835e-05, No Iterations 23
[INFO] SolveP: 259.315 [ms]
time step continuity errors : sum local = 1.28358e-08, global = -6.44643e-21, cumulative = 2.29293e-20
[INFO] ContinuityError: 1.739 [ms]
[INFO] CorrectBoundary: 0.081 [ms]
[INFO] PISOStep: 281.846 [ms]
[INFO] MatrixAssemblyPI: 11.44 [ms]
[INFO] AdjustPhi: 0.544 [ms]
[INFO] ConstrainPressure: 0.002 [ms]
[INFO] MatrixAssemblyPII: 3.882 [ms]
GAMG:  Solving for p, Initial residual = 0.0236949, Final residual = 9.89911e-05, No Iterations 22
[INFO] SolveP: 244.17 [ms]
time step continuity errors : sum local = 1.40086e-08, global = -1.02837e-20, cumulative = 1.26456e-20
[INFO] ContinuityError: 1.67 [ms]
[INFO] CorrectBoundary: 0.105 [ms]
[INFO] PISOStep: 265.864 [ms]
[INFO] TimeStep: 662.069 [ms]
ExecutionTime = 8.7 s  ClockTime = 9 s

Time = 0.0065

Courant Number mean: 0.0648413 max: 0.475026
[INFO] MatrixAssemblyU: 8.398 [ms]
DILUPBiCGStab:  Solving for Ux, Initial residual = 0.00655597, Final residual = 1.91799e-05, No Iterations 5
DILUPBiCGStab:  Solving for Uy, Initial residual = 0.0140526, Final residual = 3.04729e-05, No Iterations 5
DILUPBiCGStab:  Solving for Uz, Initial residual = 0.0374656, Final residual = 9.1625e-05, No Iterations 5
[INFO] MomentumPredictor: 103.025 [ms]
[INFO] MatrixAssemblyPI: 10.666 [ms]
[INFO] AdjustPhi: 0.577 [ms]
[INFO] ConstrainPressure: 0.002 [ms]
[INFO] MatrixAssemblyPII: 3.648 [ms]
GAMG:  Solving for p, Initial residual = 0.0229306, Final residual = 9.09081e-05, No Iterations 23
[INFO] SolveP: 257.591 [ms]
time step continuity errors : sum local = 1.2817e-08, global = -4.17523e-21, cumulative = 8.47034e-21
[INFO] ContinuityError: 1.747 [ms]
[INFO] CorrectBoundary: 0.097 [ms]
[INFO] PISOStep: 278.43 [ms]
[INFO] MatrixAssemblyPI: 10.6 [ms]
[INFO] AdjustPhi: 0.604 [ms]
[INFO] ConstrainPressure: 0.003 [ms]
[INFO] MatrixAssemblyPII: 3.351 [ms]
GAMG:  Solving for p, Initial residual = 0.0203227, Final residual = 8.75728e-05, No Iterations 22
[INFO] SolveP: 253.967 [ms]
time step continuity errors : sum local = 1.23488e-08, global = 4.32875e-21, cumulative = 1.27991e-20
[INFO] ContinuityError: 2.293 [ms]
[INFO] CorrectBoundary: 0.385 [ms]
[INFO] PISOStep: 275.34 [ms]
[INFO] TimeStep: 666.941 [ms]
ExecutionTime = 9.36 s  ClockTime = 10 s

Time = 0.007

Courant Number mean: 0.0664086 max: 0.475756
[INFO] MatrixAssemblyU: 8.338 [ms]
DILUPBiCGStab:  Solving for Ux, Initial residual = 0.00595983, Final residual = 1.71514e-05, No Iterations 5
DILUPBiCGStab:  Solving for Uy, Initial residual = 0.0127579, Final residual = 2.74054e-05, No Iterations 5
DILUPBiCGStab:  Solving for Uz, Initial residual = 0.0342399, Final residual = 8.29302e-05, No Iterations 5
[INFO] MomentumPredictor: 105.912 [ms]
[INFO] MatrixAssemblyPI: 12.181 [ms]
[INFO] AdjustPhi: 0.526 [ms]
[INFO] ConstrainPressure: 0.002 [ms]
[INFO] MatrixAssemblyPII: 3.549 [ms]
GAMG:  Solving for p, Initial residual = 0.0185069, Final residual = 8.71339e-05, No Iterations 22
[INFO] SolveP: 247.738 [ms]
time step continuity errors : sum local = 1.23141e-08, global = 3.794e-21, cumulative = 1.65931e-20
[INFO] ContinuityError: 1.69 [ms]
[INFO] CorrectBoundary: 0.104 [ms]
[INFO] PISOStep: 269.856 [ms]
[INFO] MatrixAssemblyPI: 10.554 [ms]
[INFO] AdjustPhi: 0.635 [ms]
[INFO] ConstrainPressure: 0.003 [ms]
[INFO] MatrixAssemblyPII: 3.553 [ms]
GAMG:  Solving for p, Initial residual = 0.0167856, Final residual = 9.33973e-05, No Iterations 22
[INFO] SolveP: 244.047 [ms]
time step continuity errors : sum local = 1.31505e-08, global = -1.35398e-21, cumulative = 1.52391e-20
[INFO] ContinuityError: 1.654 [ms]
[INFO] CorrectBoundary: 0.093 [ms]
[INFO] PISOStep: 264.654 [ms]
[INFO] TimeStep: 650.677 [ms]
ExecutionTime = 10.01 s  ClockTime = 10 s

Time = 0.0075

Courant Number mean: 0.0678551 max: 0.476395
[INFO] MatrixAssemblyU: 8.404 [ms]
DILUPBiCGStab:  Solving for Ux, Initial residual = 0.00543479, Final residual = 1.52712e-05, No Iterations 5
DILUPBiCGStab:  Solving for Uy, Initial residual = 0.0116636, Final residual = 2.49231e-05, No Iterations 5
DILUPBiCGStab:  Solving for Uz, Initial residual = 0.0317477, Final residual = 7.60817e-05, No Iterations 5
[INFO] MomentumPredictor: 103.185 [ms]
[INFO] MatrixAssemblyPI: 10.723 [ms]
[INFO] AdjustPhi: 0.676 [ms]
[INFO] ConstrainPressure: 0.003 [ms]
[INFO] MatrixAssemblyPII: 3.567 [ms]
GAMG:  Solving for p, Initial residual = 0.0164309, Final residual = 9.2976e-05, No Iterations 21
[INFO] SolveP: 233.422 [ms]
time step continuity errors : sum local = 1.31257e-08, global = 2.64534e-21, cumulative = 1.78845e-20
[INFO] ContinuityError: 1.693 [ms]
[INFO] CorrectBoundary: 0.093 [ms]
[INFO] PISOStep: 254.366 [ms]
[INFO] MatrixAssemblyPI: 10.584 [ms]
[INFO] AdjustPhi: 0.559 [ms]
[INFO] ConstrainPressure: 0.003 [ms]
[INFO] MatrixAssemblyPII: 3.4 [ms]
GAMG:  Solving for p, Initial residual = 0.0150151, Final residual = 9.79658e-05, No Iterations 18
[INFO] SolveP: 200.78 [ms]
time step continuity errors : sum local = 1.37525e-08, global = -1.45736e-21, cumulative = 1.64271e-20
[INFO] ContinuityError: 1.75 [ms]
[INFO] CorrectBoundary: 0.101 [ms]
[INFO] PISOStep: 221.229 [ms]
[INFO] TimeStep: 588.949 [ms]
ExecutionTime = 10.59 s  ClockTime = 11 s

Time = 0.008

Courant Number mean: 0.0691919 max: 0.476963
[INFO] MatrixAssemblyU: 8.517 [ms]
DILUPBiCGStab:  Solving for Ux, Initial residual = 0.00499267, Final residual = 1.38205e-05, No Iterations 5
DILUPBiCGStab:  Solving for Uy, Initial residual = 0.0107144, Final residual = 2.28295e-05, No Iterations 5
DILUPBiCGStab:  Solving for Uz, Initial residual = 0.029872, Final residual = 7.09116e-05, No Iterations 5
[INFO] MomentumPredictor: 102.868 [ms]
[INFO] MatrixAssemblyPI: 10.682 [ms]
[INFO] AdjustPhi: 0.6 [ms]
[INFO] ConstrainPressure: 0.003 [ms]
[INFO] MatrixAssemblyPII: 3.582 [ms]
GAMG:  Solving for p, Initial residual = 0.0146875, Final residual = 8.34432e-05, No Iterations 20
[INFO] SolveP: 228.714 [ms]
time step continuity errors : sum local = 1.17816e-08, global = -4.09609e-21, cumulative = 1.2331e-20
[INFO] ContinuityError: 2.115 [ms]
[INFO] CorrectBoundary: 0.255 [ms]
[INFO] PISOStep: 250.748 [ms]
[INFO] MatrixAssemblyPI: 10.781 [ms]
[INFO] AdjustPhi: 1.222 [ms]
[INFO] ConstrainPressure: 0.002 [ms]
[INFO] MatrixAssemblyPII: 3.594 [ms]
GAMG:  Solving for p, Initial residual = 0.0136276, Final residual = 9.86414e-05, No Iterations 22
[INFO] SolveP: 245.682 [ms]
time step continuity errors : sum local = 1.3924e-08, global = -7.42656e-21, cumulative = 4.90444e-21
[INFO] ContinuityError: 1.767 [ms]
[INFO] CorrectBoundary: 0.072 [ms]
[INFO] PISOStep: 269.128 [ms]
[INFO] TimeStep: 633.034 [ms]
ExecutionTime = 11.22 s  ClockTime = 12 s

Time = 0.0085

Courant Number mean: 0.070437 max: 0.477472
[INFO] MatrixAssemblyU: 9.496 [ms]
DILUPBiCGStab:  Solving for Ux, Initial residual = 0.00459749, Final residual = 1.25015e-05, No Iterations 5
DILUPBiCGStab:  Solving for Uy, Initial residual = 0.00989071, Final residual = 2.09813e-05, No Iterations 5
DILUPBiCGStab:  Solving for Uz, Initial residual = 0.0279377, Final residual = 6.75841e-05, No Iterations 5
[INFO] MomentumPredictor: 102.991 [ms]
[INFO] MatrixAssemblyPI: 10.783 [ms]
[INFO] AdjustPhi: 0.561 [ms]
[INFO] ConstrainPressure: 0.003 [ms]
[INFO] MatrixAssemblyPII: 3.587 [ms]
GAMG:  Solving for p, Initial residual = 0.0133513, Final residual = 8.5651e-05, No Iterations 22
[INFO] SolveP: 246.689 [ms]
time step continuity errors : sum local = 1.20938e-08, global = 1.34459e-21, cumulative = 6.24903e-21
[INFO] ContinuityError: 1.814 [ms]
[INFO] CorrectBoundary: 0.09 [ms]
[INFO] PISOStep: 267.638 [ms]
[INFO] MatrixAssemblyPI: 10.551 [ms]
[INFO] AdjustPhi: 0.872 [ms]
[INFO] ConstrainPressure: 0.003 [ms]
[INFO] MatrixAssemblyPII: 3.528 [ms]
GAMG:  Solving for p, Initial residual = 0.0124382, Final residual = 9.8556e-05, No Iterations 20
[INFO] SolveP: 222.4 [ms]
time step continuity errors : sum local = 1.38647e-08, global = 9.64447e-22, cumulative = 7.21348e-21
[INFO] ContinuityError: 1.645 [ms]
[INFO] CorrectBoundary: 0.091 [ms]
[INFO] PISOStep: 243.225 [ms]
[INFO] TimeStep: 625.111 [ms]
ExecutionTime = 11.84 s  ClockTime = 12 s

Time = 0.009

Courant Number mean: 0.0715998 max: 0.477928
[INFO] MatrixAssemblyU: 8.332 [ms]
DILUPBiCGStab:  Solving for Ux, Initial residual = 0.00425731, Final residual = 1.14092e-05, No Iterations 5
DILUPBiCGStab:  Solving for Uy, Initial residual = 0.00916386, Final residual = 1.93984e-05, No Iterations 5
DILUPBiCGStab:  Solving for Uz, Initial residual = 0.026114, Final residual = 6.25986e-05, No Iterations 5
[INFO] MomentumPredictor: 103.55 [ms]
[INFO] MatrixAssemblyPI: 10.691 [ms]
[INFO] AdjustPhi: 0.635 [ms]
[INFO] ConstrainPressure: 0.003 [ms]
[INFO] MatrixAssemblyPII: 3.614 [ms]
GAMG:  Solving for p, Initial residual = 0.0124322, Final residual = 9.50585e-05, No Iterations 18
[INFO] SolveP: 202.754 [ms]
time step continuity errors : sum local = 1.33434e-08, global = -6.17459e-21, cumulative = 1.03888e-21
[INFO] ContinuityError: 1.711 [ms]
[INFO] CorrectBoundary: 0.102 [ms]
[INFO] PISOStep: 223.584 [ms]
[INFO] MatrixAssemblyPI: 10.495 [ms]
[INFO] AdjustPhi: 0.54 [ms]
[INFO] ConstrainPressure: 0.002 [ms]
[INFO] MatrixAssemblyPII: 3.531 [ms]
GAMG:  Solving for p, Initial residual = 0.0116328, Final residual = 8.27493e-05, No Iterations 22
[INFO] SolveP: 244.106 [ms]
time step continuity errors : sum local = 1.16927e-08, global = -1.19871e-21, cumulative = -1.59824e-22
[INFO] ContinuityError: 1.661 [ms]
[INFO] CorrectBoundary: 0.103 [ms]
[INFO] PISOStep: 264.661 [ms]
[INFO] TimeStep: 601.909 [ms]
ExecutionTime = 12.44 s  ClockTime = 13 s

Time = 0.0095

Courant Number mean: 0.0726864 max: 0.478342
[INFO] MatrixAssemblyU: 8.343 [ms]
DILUPBiCGStab:  Solving for Ux, Initial residual = 0.00394954, Final residual = 1.0436e-05, No Iterations 5
DILUPBiCGStab:  Solving for Uy, Initial residual = 0.00852102, Final residual = 1.79761e-05, No Iterations 5
DILUPBiCGStab:  Solving for Uz, Initial residual = 0.0244747, Final residual = 5.93867e-05, No Iterations 5
[INFO] MomentumPredictor: 113.864 [ms]
[INFO] MatrixAssemblyPI: 11.388 [ms]
[INFO] AdjustPhi: 1.96 [ms]
[INFO] ConstrainPressure: 0.003 [ms]
[INFO] MatrixAssemblyPII: 3.512 [ms]
GAMG:  Solving for p, Initial residual = 0.0114711, Final residual = 9.01971e-05, No Iterations 22
[INFO] SolveP: 249.488 [ms]
time step continuity errors : sum local = 1.27334e-08, global = -6.40198e-21, cumulative = -6.5618e-21
[INFO] ContinuityError: 1.805 [ms]
[INFO] CorrectBoundary: 0.07 [ms]
[INFO] PISOStep: 273.148 [ms]
[INFO] MatrixAssemblyPI: 11.694 [ms]
[INFO] AdjustPhi: 0.535 [ms]
[INFO] ConstrainPressure: 0.002 [ms]
[INFO] MatrixAssemblyPII: 3.408 [ms]
GAMG:  Solving for p, Initial residual = 0.0107771, Final residual = 9.65486e-05, No Iterations 20
[INFO] SolveP: 222.986 [ms]
time step continuity errors : sum local = 1.35893e-08, global = -4.52366e-21, cumulative = -1.10855e-20
[INFO] ContinuityError: 1.688 [ms]
[INFO] CorrectBoundary: 0.086 [ms]
[INFO] PISOStep: 244.623 [ms]
[INFO] TimeStep: 641.741 [ms]
ExecutionTime = 13.08 s  ClockTime = 13 s

Time = 0.01

Courant Number mean: 0.0737034 max: 0.478716
[INFO] MatrixAssemblyU: 8.36 [ms]
DILUPBiCGStab:  Solving for Ux, Initial residual = 0.00368012, Final residual = 9.5855e-06, No Iterations 5
DILUPBiCGStab:  Solving for Uy, Initial residual = 0.00794671, Final residual = 1.67254e-05, No Iterations 5
DILUPBiCGStab:  Solving for Uz, Initial residual = 0.0232493, Final residual = 5.59868e-05, No Iterations 5
[INFO] MomentumPredictor: 103.839 [ms]
[INFO] MatrixAssemblyPI: 10.698 [ms]
[INFO] AdjustPhi: 0.616 [ms]
[INFO] ConstrainPressure: 0.003 [ms]
[INFO] MatrixAssemblyPII: 3.63 [ms]
GAMG:  Solving for p, Initial residual = 0.0111318, Final residual = 8.95084e-05, No Iterations 19
[INFO] SolveP: 214.446 [ms]
time step continuity errors : sum local = 1.2673e-08, global = -7.47807e-21, cumulative = -1.85635e-20
[INFO] ContinuityError: 1.848 [ms]
[INFO] CorrectBoundary: 0.099 [ms]
[INFO] PISOStep: 235.448 [ms]
[INFO] MatrixAssemblyPI: 10.593 [ms]
[INFO] AdjustPhi: 0.537 [ms]
[INFO] ConstrainPressure: 0.003 [ms]
[INFO] MatrixAssemblyPII: 3.584 [ms]
GAMG:  Solving for p, Initial residual = 0.0104744, Final residual = 8.66622e-05, No Iterations 23
[INFO] SolveP: 254.921 [ms]
time step continuity errors : sum local = 1.22227e-08, global = -3.94822e-21, cumulative = -2.25117e-20
[INFO] ContinuityError: 1.694 [ms]
[INFO] CorrectBoundary: 0.085 [ms]
[INFO] PISOStep: 275.57 [ms]
[INFO] TimeStep: 624.943 [ms]
ExecutionTime = 13.7 s  ClockTime = 14 s

End

Finalising parallel run
