/*---------------------------------------------------------------------------*\
| =========                 |                                                 |
| \\      /  F ield         | OpenFOAM: The Open Source CFD Toolbox           |
|  \\    /   O peration     | Version:  2306                                  |
|   \\  /    A nd           | Website:  www.openfoam.com                      |
|    \\/     M anipulation  |                                                 |
\*---------------------------------------------------------------------------*/
Build  : c423ebec-20231012 OPENFOAM=2306 version=v2306
Arch   : "LSB;label=32;scalar=64"
Exec   : simpleFoam -parallel -case /hkfs/work/workspace/scratch/eq4036-windsorbody_setup/workspace/b4a4bdac16e9b60a9a264e852ecc3be9/case
Date   : Feb 16 2024
Time   : 20:32:35
Host   : hkn0603.localdomain
PID    : 486075
I/O    : uncollated
Case   : /hkfs/work/workspace/scratch/eq4036-windsorbody_setup/workspace/b4a4bdac16e9b60a9a264e852ecc3be9/case
nProcs : 8
Hosts  :
(
    (hkn0603.localdomain 8)
)
Pstream initialized with:
    floatTransfer      : false
    nProcsSimpleSum    : 0
    nonBlockingExchange: 0 (tuning: 0)
    exchange algorithm : -1
    commsType          : nonBlocking
    polling iterations : 0
trapFpe: Floating point exception trapping enabled (FOAM_SIGFPE).
fileModificationChecking : Monitoring run-time modified files using timeStampMaster (fileModificationSkew 5, maxFileModificationPolls 20)
allowSystemOperations : Allowing user-supplied system call operations

// * * * * * * * * * * * * * * * * * * * * * * * * * * * * * * * * * * * * * //
Create time

--> FOAM Warning : 
    From void* Foam::dlLibraryTable::openLibrary(const Foam::fileName&, bool)
    in file db/dynamicLibrary/dlLibraryTable/dlLibraryTable.C at line 188
    Could not load "libpetscFoam.so"
libpetscFoam.so: cannot open shared object file: No such file or directory
Create mesh for time = 0


SIMPLE: convergence criteria
    field p	 tolerance 1e-08
    field U	 tolerance 1e-08
    field k	 tolerance 1e-08
    field omega	 tolerance 1e-08
    field nuTilda	 tolerance 1e-08

Reading field p

Reading field U

Reading/calculating face flux field phi

Selecting incompressible transport model Newtonian
Selecting turbulence model type RAS
Selecting RAS turbulence model SpalartAllmaras
Selecting patchDistMethod meshWave
ft2 term: inactive
RAS
{
    RASModel        SpalartAllmaras;
    turbulence      on;
    printCoeffs     on;
    sigmaNut        0.66666;
    kappa           0.41;
    Cb1             0.1355;
    Cb2             0.622;
    Cw2             0.3;
    Cw3             2;
    Cv1             7.1;
    Cs              0.3;
    ck              0.07000000000000001;
    ft2             false;
    Ct3             1.2;
    Ct4             0.5;
}

No MRF models present

Creating finite volume options from "system/fvOptions"

Selecting finite volume options type velocityDampingConstraint
    Source: velocityDamping
    - selecting all cells
    - selected 12614272 cell(s) with volume 55.65166103208902

Starting time loop

--> FOAM Warning : 
    From bool Foam::functionObjectList::read()
    in file db/functionObjects/functionObjectList/functionObjectList.C at line 1035
    Reading "system/controlDict" at line 2 to 41
    Entry 'lref' is not a dictionary
--> FOAM Warning : 
    From bool Foam::functionObjectList::read()
    in file db/functionObjects/functionObjectList/functionObjectList.C at line 1035
    Reading "system/controlDict" at line 2 to 41
    Entry 'Aref' is not a dictionary
--> FOAM Warning : 
    From bool Foam::functionObjectList::read()
    in file db/functionObjects/functionObjectList/functionObjectList.C at line 1035
    Reading "system/controlDict" at line 2 to 41
    Entry 'yawAngle' is not a dictionary
--> FOAM Warning : 
    From bool Foam::functionObjectList::read()
    in file db/functionObjects/functionObjectList/functionObjectList.C at line 1035
    Reading "system/controlDict" at line 2 to 41
    Entry 'lDomain' is not a dictionary
--> FOAM Warning : 
    From bool Foam::functionObjectList::read()
    in file db/functionObjects/functionObjectList/functionObjectList.C at line 1035
    Reading "system/controlDict" at line 2 to 41
    Entry 'bDomain' is not a dictionary
--> FOAM Warning : 
    From bool Foam::functionObjectList::read()
    in file db/functionObjects/functionObjectList/functionObjectList.C at line 1035
    Reading "system/controlDict" at line 2 to 41
    Entry 'hDomain' is not a dictionary
--> FOAM Warning : 
    From bool Foam::functionObjectList::read()
    in file db/functionObjects/functionObjectList/functionObjectList.C at line 1035
    Reading "system/controlDict" at line 2 to 41
    Entry 'xCenter' is not a dictionary
--> FOAM Warning : 
    From bool Foam::functionObjectList::read()
    in file db/functionObjects/functionObjectList/functionObjectList.C at line 1035
    Reading "system/controlDict" at line 2 to 41
    Entry 'yCenter' is not a dictionary
--> FOAM Warning : 
    From bool Foam::functionObjectList::read()
    in file db/functionObjects/functionObjectList/functionObjectList.C at line 1035
    Reading "system/controlDict" at line 2 to 41
    Entry 'zCenter' is not a dictionary
--> FOAM Warning : 
    From bool Foam::functionObjectList::read()
    in file db/functionObjects/functionObjectList/functionObjectList.C at line 1035
    Reading "system/controlDict" at line 2 to 41
    Entry 'inletPatch' is not a dictionary
--> FOAM Warning : 
    From bool Foam::functionObjectList::read()
    in file db/functionObjects/functionObjectList/functionObjectList.C at line 1035
    Reading "system/controlDict" at line 2 to 41
    Entry 'outletPatch' is not a dictionary
--> FOAM Warning : 
    From bool Foam::functionObjectList::read()
    in file db/functionObjects/functionObjectList/functionObjectList.C at line 1035
    Reading "system/controlDict" at line 2 to 41
    Entry 'wallPatches' is not a dictionary
--> FOAM Warning : 
    From bool Foam::functionObjectList::read()
    in file db/functionObjects/functionObjectList/functionObjectList.C at line 1035
    Reading "system/controlDict" at line 2 to 41
    Entry 'forcesWallPatches' is not a dictionary
--> FOAM Warning : 
    From bool Foam::functionObjectList::read()
    in file db/functionObjects/functionObjectList/functionObjectList.C at line 1035
    Reading "system/controlDict" at line 2 to 41
    Entry 'symmPatches' is not a dictionary
--> FOAM Warning : 
    From bool Foam::functionObjectList::read()
    in file db/functionObjects/functionObjectList/functionObjectList.C at line 1035
    Reading "system/controlDict" at line 2 to 41
    Entry 'Uinf' is not a dictionary
--> FOAM Warning : 
    From bool Foam::functionObjectList::read()
    in file db/functionObjects/functionObjectList/functionObjectList.C at line 1035
    Reading "system/controlDict" at line 2 to 41
    Entry 'UinfMag' is not a dictionary
--> FOAM Warning : 
    From bool Foam::functionObjectList::read()
    in file db/functionObjects/functionObjectList/functionObjectList.C at line 1035
    Reading "system/controlDict" at line 2 to 41
    Entry 'nu' is not a dictionary
--> FOAM Warning : 
    From bool Foam::functionObjectList::read()
    in file db/functionObjects/functionObjectList/functionObjectList.C at line 1035
    Reading "system/controlDict" at line 2 to 41
    Entry 'pref' is not a dictionary
--> FOAM Warning : 
    From bool Foam::functionObjectList::read()
    in file db/functionObjects/functionObjectList/functionObjectList.C at line 1035
    Reading "system/controlDict" at line 2 to 41
    Entry 'viscRatio' is not a dictionary
--> FOAM Warning : 
    From bool Foam::functionObjectList::read()
    in file db/functionObjects/functionObjectList/functionObjectList.C at line 1035
    Reading "system/controlDict" at line 2 to 41
    Entry 'Tu' is not a dictionary
--> FOAM Warning : 
    From bool Foam::functionObjectList::read()
    in file db/functionObjects/functionObjectList/functionObjectList.C at line 1035
    Reading "system/controlDict" at line 2 to 41
    Entry 'LESturbModel' is not a dictionary
--> FOAM Warning : 
    From bool Foam::functionObjectList::read()
    in file db/functionObjects/functionObjectList/functionObjectList.C at line 1035
    Reading "system/controlDict" at line 2 to 41
    Entry 'RASturbModel' is not a dictionary
--> FOAM Warning : 
    From bool Foam::functionObjectList::read()
    in file db/functionObjects/functionObjectList/functionObjectList.C at line 1035
    Reading "system/controlDict" at line 2 to 41
    Entry 'deltaTurb' is not a dictionary
--> FOAM Warning : 
    From bool Foam::functionObjectList::read()
    in file db/functionObjects/functionObjectList/functionObjectList.C at line 1035
    Reading "system/controlDict" at line 2 to 41
    Entry 'dt' is not a dictionary
--> FOAM Warning : 
    From bool Foam::functionObjectList::read()
    in file db/functionObjects/functionObjectList/functionObjectList.C at line 1035
    Reading "system/controlDict" at line 2 to 41
    Entry 'tAvg' is not a dictionary
--> FOAM Warning : 
    From bool Foam::functionObjectList::read()
    in file db/functionObjects/functionObjectList/functionObjectList.C at line 1035
    Reading "system/controlDict" at line 2 to 41
    Entry 'tEnd' is not a dictionary
--> FOAM Warning : 
    From bool Foam::functionObjectList::read()
    in file db/functionObjects/functionObjectList/functionObjectList.C at line 1035
    Reading "system/controlDict" at line 2 to 41
    Entry 'writeInterval_' is not a dictionary
--> FOAM Warning : 
    From bool Foam::functionObjectList::read()
    in file db/functionObjects/functionObjectList/functionObjectList.C at line 1035
    Reading "system/controlDict" at line 2 to 41
    Entry 'nCores' is not a dictionary
--> FOAM Warning : 
    From bool Foam::functionObjectList::read()
    in file db/functionObjects/functionObjectList/functionObjectList.C at line 1035
    Reading "system/controlDict" at line 2 to 41
    Entry 'interpScheme' is not a dictionary
--> FOAM Warning : 
    From bool Foam::functionObjectList::read()
    in file db/functionObjects/functionObjectList/functionObjectList.C at line 1035
    Reading "system/controlDict" at line 2 to 41
    Entry 'probeField' is not a dictionary
wallShearStress wallShearStress:
    processing wall patches: 
        Windsor_Body
        CFDWT_Floor
        Windsor_Pins
        Windsor_Base
        Windsor_Body_2
        CFDWT_Floor_2
        Windsor_Pins_2
        Windsor_Base_2

pressure calc_cp:
    Operating mode: staticCoeff
    Not including hydrostatic effects

forceCoeffs forceCoeffsAll:
    rho: rhoInf
    Freestream density (rhoInf) set to 1
    Not including porosity effects
    magUInf: 40
    lRef   : 0.6375
    Aref   : 0.1124
    rhoInf : 1
    Selecting all coefficients
    - Drag force: Cd
    - Drag force front: Cd(f)
    - Drag force rear: Cd(r)
    - Lift force: Cl
    - Lift force front: Cl(f)
    - Lift force rear: Cl(r)
    - Pitch moment: CmPitch
    - Roll moment: CmRoll
    - Yaw moment: CmYaw
    - Side force: Cs
    - Side force front: Cs(f)
    - Side force rear: Cs(r)


forceCoeffs dragCoeffBase:
    rho: rhoInf
    Freestream density (rhoInf) set to 1
    Not including porosity effects
    magUInf: 40
    lRef   : 0.6375
    Aref   : 0.1124
    rhoInf : 1
    Selecting coefficients:
    - Drag force: Cd


Time = 1

velocityDampingConstraint velocityDamping damped 0 (0%) of cells, with max limit 300
smoothSolver:  Solving for Ux, Initial residual = 0.9999999999994108, Final residual = 0.08528174739783526, No Iterations 3
smoothSolver:  Solving for Uy, Initial residual = 1, Final residual = 0.06554932570486824, No Iterations 6
smoothSolver:  Solving for Uz, Initial residual = 1, Final residual = 0.01751046527747439, No Iterations 2
[OGL LOG][lduLduBase.H:119] Initialising OGL
	OGL commit:  e75313f+
	Branch: dev 
	Build type: Debug
	Ginkgo version: 1.8.0 ( develop)
	Ginkgo commit: sparse-communicator
	MPI is GPU aware: 1
	Forces host buffer based communication: 0
	CPU ranks per GPU: 1
	Matrix format: Coo
	End OGL_INFO
[OGL LOG][Proc: 0]: global_index_init: 11.762 [ms]
[OGL LOG][Proc: 0]p_local_cols: call_init: 0.292 [ms]
[OGL LOG][Proc: 0]p_local_rows: call_init: 0.032 [ms]
[OGL LOG][Proc: 0]p_local_ldu_map: call_init: 0.019 [ms]
[OGL LOG][Proc: 0]p_local_coeffs: call_init: 4.905 [ms]
[OGL LOG][Proc: 0]p_non_local_cols: call_init: 0.018 [ms]
[OGL LOG][Proc: 0]p_non_local_rows: call_init: 0.004 [ms]
[OGL LOG][Proc: 0]p_non_local_ldu_map: call_init: 0.005 [ms]
[OGL LOG][Proc: 0]p_non_local_coeffs: call_init: 0.011 [ms]
[OGL LOG][Proc: 0]p: init_local_sparsity_pattern: 50055.983 [ms]
[OGL LOG][Proc: 0]p: init_non_local_sparsity_pattern: 11533.233 [ms]
[OGL LOG][Proc: 0]p: update_local_matrix_data: 87.893 [ms]
[OGL LOG][Proc: 0]p: update_non_local_matrix_data: 0.501 [ms]
[OGL LOG][Proc: 0]device_partition: call_init: 0.8110000000000001 [ms]
[OGL LOG][Proc: 0]p_matrix: call_init: 156.798 [ms]
[OGL LOG][Proc: 0]p_rhs: call_init: 2.075 [ms]
[OGL LOG][Proc: 0]p_solution: call_init: 3.825 [ms]
[OGL LOG][Preconditioner.H:121] Generate preconditioner BJ MaxBlockSize 1
[OGL LOG][Proc: 0]p: init_precond: 11.725 [ms]
[OGL LOG][StoppingCriterion.H:239] Creating stopping criterion with minIter 0 frequency 1
[OGL LOG][Proc: 0]p: generate_solver: 0.301 [ms]
[OGL LOG][Proc: 0]p: solve: 5242.898 [ms]
[OGL LOG][Proc: 0]p: copy_x_back: 5.391 [ms]
[OGL LOG][lduLduBase.H:330] 
Statistics:
	Time per iteration: 4380 [mu s]
	Time per residual norm calculation: 4681.000000 [mu s]
	Time per iteration and DOF: 0.347226 [ns]
	Retrieve results bandwidth 2.342000 [GByte/s]
[OGL LOG][Proc: 0]p: solve_multi_gpu: 5560.392 [ms]
BJcudaGKOCG:  Solving for p, Initial residual = 1.000000000000574, Final residual = 0.009801556604821571, No Iterations 1197
time step continuity errors : sum local = 0.003562104448347038, global = 6.96549570784743e-05, cumulative = 6.96549570784743e-05
smoothSolver:  Solving for nuTilda, Initial residual = 0.9999999904260376, Final residual = 0.05255588689962121, No Iterations 3
ExecutionTime = 89.88 s  ClockTime = 91 s

--> FOAM Warning : 
    From virtual bool Foam::functionObjects::fieldSelection::checkSelection()
    in file functionObjects/fieldSelections/fieldSelection/fieldSelection.C at line 166
    Field k not found
--> FOAM Warning : 
    From virtual bool Foam::functionObjects::fieldSelection::checkSelection()
    in file functionObjects/fieldSelections/fieldSelection/fieldSelection.C at line 166
    Field gammaInt not found
--> FOAM Warning : 
    From virtual bool Foam::functionObjects::fieldSelection::checkSelection()
    in file functionObjects/fieldSelections/fieldSelection/fieldSelection.C at line 166
    Field omega not found
--> FOAM Warning : 
    From virtual bool Foam::functionObjects::fieldSelection::checkSelection()
    in file functionObjects/fieldSelections/fieldSelection/fieldSelection.C at line 166
    Field ReThetat not found
--> FOAM Warning : 
    From virtual bool Foam::functionObjects::fieldSelection::checkSelection()
    in file functionObjects/fieldSelections/fieldSelection/fieldSelection.C at line 166
    Field epsilon not found
--> FOAM Warning : 
    From virtual bool Foam::functionObjects::solverFieldSelection::updateSelection()
    in file functionObjects/fieldSelections/solverFieldSelection/solverFieldSelection.C at line 85
    Valid solver fields are: 3(U nuTilda p)Time = 2

velocityDampingConstraint velocityDamping damped 0 (0%) of cells, with max limit 300
smoothSolver:  Solving for Ux, Initial residual = 0.4348473511509111, Final residual = 0.02787491348239039, No Iterations 5
smoothSolver:  Solving for Uy, Initial residual = 0.5806949749289769, Final residual = 0.03760941419250103, No Iterations 5
smoothSolver:  Solving for Uz, Initial residual = 0.5439937978403021, Final residual = 0.05437264323613902, No Iterations 4
[OGL LOG][Proc: 0]: global_index_init: 0.015 [ms]
[OGL LOG][Proc: 0]p_local_coeffs: call_update: 0.001 [ms]
[OGL LOG][Proc: 0]p_non_local_coeffs: call_update: 0 [ms]
[OGL LOG][Proc: 0]p: update_local_matrix_data: 69.949 [ms]
[OGL LOG][Proc: 0]p: update_non_local_matrix_data: 0.361 [ms]
[OGL LOG][Proc: 0]p_matrix: call_update: 2.091 [ms]
[OGL LOG][Proc: 0]p_rhs: call_update: 2.869 [ms]
[OGL LOG][Preconditioner.H:121] Generate preconditioner BJ MaxBlockSize 1
[OGL LOG][Proc: 0]p: init_precond: 2.05 [ms]
[OGL LOG][StoppingCriterion.H:239] Creating stopping criterion with minIter 0 frequency 1
[OGL LOG][Proc: 0]p: generate_solver: 0.015 [ms]
[OGL LOG][Proc: 0]p: solve: 3947.843 [ms]
[OGL LOG][Proc: 0]p: copy_x_back: 4.931 [ms]
[OGL LOG][lduLduBase.H:330] 
Statistics:
	Time per iteration: 4314 [mu s]
	Time per residual norm calculation: 1415.000000 [mu s]
	Time per iteration and DOF: 0.341994 [ns]
	Retrieve results bandwidth 2.561000 [GByte/s]
[OGL LOG][Proc: 0]p: solve_multi_gpu: 3961.846 [ms]
BJcudaGKOCG:  Solving for p, Initial residual = 0.4313365897196477, Final residual = 0.004253164023250542, No Iterations 915
time step continuity errors : sum local = 0.09282440886659807, global = 0.004827060699921469, cumulative = 0.004896715656999943
smoothSolver:  Solving for nuTilda, Initial residual = 0.298980949515249, Final residual = 0.01996707000863349, No Iterations 2
ExecutionTime = 101.2 s  ClockTime = 102 s

Time = 3

velocityDampingConstraint velocityDamping damped 9203 (0.07000000000000001%) of cells, with max limit 300
smoothSolver:  Solving for Ux, Initial residual = 0.2907071871655993, Final residual = 0.01821718273975185, No Iterations 2
smoothSolver:  Solving for Uy, Initial residual = 0.2830790500350614, Final residual = 0.02612117550910212, No Iterations 4
smoothSolver:  Solving for Uz, Initial residual = 0.2613972266452732, Final residual = 0.02283644666649447, No Iterations 4
[OGL LOG][Proc: 0]: global_index_init: 0.017 [ms]
[OGL LOG][Proc: 0]p_local_coeffs: call_update: 0 [ms]
[OGL LOG][Proc: 0]p_non_local_coeffs: call_update: 0 [ms]
[OGL LOG][Proc: 0]p: update_local_matrix_data: 71.548 [ms]
[OGL LOG][Proc: 0]p: update_non_local_matrix_data: 0.337 [ms]
[OGL LOG][Proc: 0]p_matrix: call_update: 3.291 [ms]
[OGL LOG][Proc: 0]p_rhs: call_update: 1.902 [ms]
[OGL LOG][Preconditioner.H:121] Generate preconditioner BJ MaxBlockSize 1
[OGL LOG][Proc: 0]p: init_precond: 2.083 [ms]
[OGL LOG][StoppingCriterion.H:239] Creating stopping criterion with minIter 549 frequency 11
[OGL LOG][Proc: 0]p: generate_solver: 0.015 [ms]
[OGL LOG][Proc: 0]p: solve: 3247.48 [ms]
[OGL LOG][Proc: 0]p: copy_x_back: 4.851 [ms]
[OGL LOG][lduLduBase.H:330] 
Statistics:
	Time per iteration: 3137 [mu s]
	Time per residual norm calculation: 1280.000000 [mu s]
	Time per iteration and DOF: 0.248687 [ns]
	Retrieve results bandwidth 2.603000 [GByte/s]
[OGL LOG][Proc: 0]p: solve_multi_gpu: 3261.655 [ms]
BJcudaGKOCG:  Solving for p, Initial residual = 0.2591351894916842, Final residual = 0.002428327407456249, No Iterations 1035
time step continuity errors : sum local = 0.02033261334414708, global = -0.0002507529908753443, cumulative = 0.004645962666124599
smoothSolver:  Solving for nuTilda, Initial residual = 0.331452086578044, Final residual = 0.02751280925077548, No Iterations 1
ExecutionTime = 111.53 s  ClockTime = 113 s

Time = 4

velocityDampingConstraint velocityDamping damped 87 (0%) of cells, with max limit 300
smoothSolver:  Solving for Ux, Initial residual = 0.03612407080043091, Final residual = 0.002933132965631342, No Iterations 4
smoothSolver:  Solving for Uy, Initial residual = 0.0533455216107516, Final residual = 0.004681922799513401, No Iterations 4
smoothSolver:  Solving for Uz, Initial residual = 0.05049297428772311, Final residual = 0.004498399104702769, No Iterations 4
[OGL LOG][Proc: 0]: global_index_init: 0.018 [ms]
[OGL LOG][Proc: 0]p_local_coeffs: call_update: 0 [ms]
[OGL LOG][Proc: 0]p_non_local_coeffs: call_update: 0 [ms]
[OGL LOG][Proc: 0]p: update_local_matrix_data: 69.762 [ms]
[OGL LOG][Proc: 0]p: update_non_local_matrix_data: 0.348 [ms]
[OGL LOG][Proc: 0]p_matrix: call_update: 3.45 [ms]
[OGL LOG][Proc: 0]p_rhs: call_update: 1.674 [ms]
[OGL LOG][Preconditioner.H:121] Generate preconditioner BJ MaxBlockSize 1
[OGL LOG][Proc: 0]p: init_precond: 1.684 [ms]
[OGL LOG][StoppingCriterion.H:239] Creating stopping criterion with minIter 621 frequency 14
[OGL LOG][Proc: 0]p: generate_solver: 0.019 [ms]
[OGL LOG][Proc: 0]p: solve: 1990.034 [ms]
[OGL LOG][Proc: 0]p: copy_x_back: 4.902 [ms]
[OGL LOG][lduLduBase.H:330] 
Statistics:
	Time per iteration: 3153 [mu s]
	Time per residual norm calculation: 1279.000000 [mu s]
	Time per iteration and DOF: 0.249955 [ns]
	Retrieve results bandwidth 2.576000 [GByte/s]
[OGL LOG][Proc: 0]p: solve_multi_gpu: 2006.605 [ms]
BJcudaGKOCG:  Solving for p, Initial residual = 0.3711317022521438, Final residual = 0.00151470108772931, No Iterations 631
time step continuity errors : sum local = 0.01858315658103962, global = -0.001880046446987551, cumulative = 0.002765916219137048
smoothSolver:  Solving for nuTilda, Initial residual = 0.1522382080951047, Final residual = 0.006636491228469462, No Iterations 3
ExecutionTime = 120.79 s  ClockTime = 122 s

Time = 5

velocityDampingConstraint velocityDamping damped 2749 (0.02%) of cells, with max limit 300
smoothSolver:  Solving for Ux, Initial residual = 0.1784861506847273, Final residual = 0.01540682133702508, No Iterations 3
smoothSolver:  Solving for Uy, Initial residual = 0.2612413066101105, Final residual = 0.02128915648790017, No Iterations 4
smoothSolver:  Solving for Uz, Initial residual = 0.2229378805276365, Final residual = 0.01716036484672223, No Iterations 4
[OGL LOG][Proc: 0]: global_index_init: 0.017 [ms]
[OGL LOG][Proc: 0]p_local_coeffs: call_update: 0 [ms]
[OGL LOG][Proc: 0]p_non_local_coeffs: call_update: 0 [ms]
[OGL LOG][Proc: 0]p: update_local_matrix_data: 70.485 [ms]
[OGL LOG][Proc: 0]p: update_non_local_matrix_data: 0.339 [ms]
[OGL LOG][Proc: 0]p_matrix: call_update: 3.339 [ms]
[OGL LOG][Proc: 0]p_rhs: call_update: 1.815 [ms]
[OGL LOG][Preconditioner.H:121] Generate preconditioner BJ MaxBlockSize 1
[OGL LOG][Proc: 0]p: init_precond: 1.883 [ms]
[OGL LOG][StoppingCriterion.H:239] Creating stopping criterion with minIter 378 frequency 11
[OGL LOG][Proc: 0]p: generate_solver: 0.016 [ms]
[OGL LOG][Proc: 0]p: solve: 2878.4 [ms]
[OGL LOG][Proc: 0]p: copy_x_back: 4.946 [ms]
[OGL LOG][lduLduBase.H:330] 
Statistics:
	Time per iteration: 3149 [mu s]
	Time per residual norm calculation: 1425.000000 [mu s]
	Time per iteration and DOF: 0.249638 [ns]
	Retrieve results bandwidth 2.553000 [GByte/s]
[OGL LOG][Proc: 0]p: solve_multi_gpu: 2892.69 [ms]
BJcudaGKOCG:  Solving for p, Initial residual = 0.2707504259631441, Final residual = 0.002237951254923803, No Iterations 914
time step continuity errors : sum local = 0.02450687091524936, global = -0.0009343670640013562, cumulative = 0.001831549155135692
smoothSolver:  Solving for nuTilda, Initial residual = 0.1174660932827083, Final residual = 0.01040700705615757, No Iterations 2
ExecutionTime = 130.76 s  ClockTime = 132 s

Time = 6

velocityDampingConstraint velocityDamping damped 226 (0%) of cells, with max limit 300
smoothSolver:  Solving for Ux, Initial residual = 0.1305056815264889, Final residual = 0.01245140664732453, No Iterations 4
smoothSolver:  Solving for Uy, Initial residual = 0.2512881929209848, Final residual = 0.01526214403073352, No Iterations 5
smoothSolver:  Solving for Uz, Initial residual = 0.2067266676039264, Final residual = 0.01983131958198981, No Iterations 4
[OGL LOG][Proc: 0]: global_index_init: 0.017 [ms]
[OGL LOG][Proc: 0]p_local_coeffs: call_update: 0 [ms]
[OGL LOG][Proc: 0]p_non_local_coeffs: call_update: 0 [ms]
[OGL LOG][Proc: 0]p: update_local_matrix_data: 69.907 [ms]
[OGL LOG][Proc: 0]p: update_non_local_matrix_data: 0.365 [ms]
[OGL LOG][Proc: 0]p_matrix: call_update: 2.835 [ms]
[OGL LOG][Proc: 0]p_rhs: call_update: 2.153 [ms]
[OGL LOG][Preconditioner.H:121] Generate preconditioner BJ MaxBlockSize 1
[OGL LOG][Proc: 0]p: init_precond: 1.791 [ms]
[OGL LOG][StoppingCriterion.H:239] Creating stopping criterion with minIter 548 frequency 13
[OGL LOG][Proc: 0]p: generate_solver: 0.017 [ms]
[OGL LOG][Proc: 0]p: solve: 2860.59 [ms]
[OGL LOG][Proc: 0]p: copy_x_back: 4.805 [ms]
[OGL LOG][lduLduBase.H:330] 
Statistics:
	Time per iteration: 3140 [mu s]
	Time per residual norm calculation: 1277.000000 [mu s]
	Time per iteration and DOF: 0.248924 [ns]
	Retrieve results bandwidth 2.628000 [GByte/s]
[OGL LOG][Proc: 0]p: solve_multi_gpu: 2876.954 [ms]
BJcudaGKOCG:  Solving for p, Initial residual = 0.4121042409741837, Final residual = 0.003624901066812449, No Iterations 911
time step continuity errors : sum local = 0.02574102807513592, global = -0.00116643217518035, cumulative = 0.0006651169799553416
smoothSolver:  Solving for nuTilda, Initial residual = 0.07895857966676444, Final residual = 0.00493566955088311, No Iterations 3
ExecutionTime = 140.87 s  ClockTime = 142 s

Time = 7

velocityDampingConstraint velocityDamping damped 930 (0.01%) of cells, with max limit 300
smoothSolver:  Solving for Ux, Initial residual = 0.09318829996588378, Final residual = 0.005898368067978634, No Iterations 4
smoothSolver:  Solving for Uy, Initial residual = 0.1078628164532804, Final residual = 0.008209389653942427, No Iterations 4
smoothSolver:  Solving for Uz, Initial residual = 0.1045816613934582, Final residual = 0.007853878384440315, No Iterations 4
[OGL LOG][Proc: 0]: global_index_init: 0.019 [ms]
[OGL LOG][Proc: 0]p_local_coeffs: call_update: 0 [ms]
[OGL LOG][Proc: 0]p_non_local_coeffs: call_update: 0 [ms]
[OGL LOG][Proc: 0]p: update_local_matrix_data: 68.968 [ms]
[OGL LOG][Proc: 0]p: update_non_local_matrix_data: 0.335 [ms]
[OGL LOG][Proc: 0]p_matrix: call_update: 3.179 [ms]
[OGL LOG][Proc: 0]p_rhs: call_update: 1.948 [ms]
[OGL LOG][Preconditioner.H:121] Generate preconditioner BJ MaxBlockSize 1
[OGL LOG][Proc: 0]p: init_precond: 1.591 [ms]
[OGL LOG][StoppingCriterion.H:239] Creating stopping criterion with minIter 546 frequency 13
[OGL LOG][Proc: 0]p: generate_solver: 0.015 [ms]
[OGL LOG][Proc: 0]p: solve: 2419.091 [ms]
[OGL LOG][Proc: 0]p: copy_x_back: 5.086 [ms]
[OGL LOG][lduLduBase.H:330] 
Statistics:
	Time per iteration: 3149 [mu s]
	Time per residual norm calculation: 1128.000000 [mu s]
	Time per iteration and DOF: 0.249638 [ns]
	Retrieve results bandwidth 2.483000 [GByte/s]
[OGL LOG][Proc: 0]p: solve_multi_gpu: 2433.839 [ms]
BJcudaGKOCG:  Solving for p, Initial residual = 0.2679130196356383, Final residual = 0.002649439791911926, No Iterations 768
time step continuity errors : sum local = 0.02004537056620667, global = 0.001343827418485566, cumulative = 0.002008944398440907
smoothSolver:  Solving for nuTilda, Initial residual = 0.06366770292489257, Final residual = 0.003963260278600744, No Iterations 3
ExecutionTime = 150.47 s  ClockTime = 152 s

Time = 8

velocityDampingConstraint velocityDamping damped 926 (0.01%) of cells, with max limit 300
smoothSolver:  Solving for Ux, Initial residual = 0.1192198812086957, Final residual = 0.009594570864796672, No Iterations 4
smoothSolver:  Solving for Uy, Initial residual = 0.1776242519994572, Final residual = 0.0159456635704142, No Iterations 4
smoothSolver:  Solving for Uz, Initial residual = 0.1732597994397554, Final residual = 0.01530723048377232, No Iterations 4
[OGL LOG][Proc: 0]: global_index_init: 0.241 [ms]
[OGL LOG][Proc: 0]p_local_coeffs: call_update: 0 [ms]
[OGL LOG][Proc: 0]p_non_local_coeffs: call_update: 0 [ms]
[OGL LOG][Proc: 0]p: update_local_matrix_data: 71.886 [ms]
[OGL LOG][Proc: 0]p: update_non_local_matrix_data: 0.359 [ms]
[OGL LOG][Proc: 0]p_matrix: call_update: 3.247 [ms]
[OGL LOG][Proc: 0]p_rhs: call_update: 3.525 [ms]
[OGL LOG][Preconditioner.H:121] Generate preconditioner BJ MaxBlockSize 1
[OGL LOG][Proc: 0]p: init_precond: 2.003 [ms]
[OGL LOG][StoppingCriterion.H:239] Creating stopping criterion with minIter 460 frequency 12
[OGL LOG][Proc: 0]p: generate_solver: 0.014 [ms]
[OGL LOG][Proc: 0]p: solve: 2828.624 [ms]
[OGL LOG][Proc: 0]p: copy_x_back: 4.926 [ms]
[OGL LOG][lduLduBase.H:330] 
Statistics:
	Time per iteration: 3139 [mu s]
	Time per residual norm calculation: 1278.000000 [mu s]
	Time per iteration and DOF: 0.248845 [ns]
	Retrieve results bandwidth 2.563000 [GByte/s]
[OGL LOG][Proc: 0]p: solve_multi_gpu: 2844.207 [ms]
BJcudaGKOCG:  Solving for p, Initial residual = 0.2426657158653058, Final residual = 0.002007410720673345, No Iterations 901
time step continuity errors : sum local = 0.01611563293398496, global = 0.0002293230641453998, cumulative = 0.002238267462586307
smoothSolver:  Solving for nuTilda, Initial residual = 0.0489503516263278, Final residual = 0.003792437864142916, No Iterations 3
ExecutionTime = 160.58 s  ClockTime = 162 s

Time = 9

velocityDampingConstraint velocityDamping damped 30 (0%) of cells, with max limit 300
smoothSolver:  Solving for Ux, Initial residual = 0.06996202670258043, Final residual = 0.005876195227353206, No Iterations 4
smoothSolver:  Solving for Uy, Initial residual = 0.108475841477256, Final residual = 0.0102467683412103, No Iterations 4
smoothSolver:  Solving for Uz, Initial residual = 0.1046421246138959, Final residual = 0.009527271327092182, No Iterations 4
[OGL LOG][Proc: 0]: global_index_init: 0.017 [ms]
[OGL LOG][Proc: 0]p_local_coeffs: call_update: 0 [ms]
[OGL LOG][Proc: 0]p_non_local_coeffs: call_update: 0 [ms]
[OGL LOG][Proc: 0]p: update_local_matrix_data: 67.593 [ms]
[OGL LOG][Proc: 0]p: update_non_local_matrix_data: 0.335 [ms]
[OGL LOG][Proc: 0]p_matrix: call_update: 3.449 [ms]
[OGL LOG][Proc: 0]p_rhs: call_update: 3.387 [ms]
[OGL LOG][Preconditioner.H:121] Generate preconditioner BJ MaxBlockSize 1
[OGL LOG][Proc: 0]p: init_precond: 1.932 [ms]
[OGL LOG][StoppingCriterion.H:239] Creating stopping criterion with minIter 540 frequency 13
[OGL LOG][Proc: 0]p: generate_solver: 0.018 [ms]
[OGL LOG][Proc: 0]p: solve: 1890.666 [ms]
[OGL LOG][Proc: 0]p: copy_x_back: 5.037 [ms]
[OGL LOG][lduLduBase.H:330] 
Statistics:
	Time per iteration: 3156 [mu s]
	Time per residual norm calculation: 1276.000000 [mu s]
	Time per iteration and DOF: 0.250193 [ns]
	Retrieve results bandwidth 2.507000 [GByte/s]
[OGL LOG][Proc: 0]p: solve_multi_gpu: 1909.39 [ms]
BJcudaGKOCG:  Solving for p, Initial residual = 0.3407187336175352, Final residual = 0.00324253806805351, No Iterations 599
time step continuity errors : sum local = 0.01994128346142101, global = 0.003408450606645712, cumulative = 0.00564671806923202
smoothSolver:  Solving for nuTilda, Initial residual = 0.04226240410945389, Final residual = 0.003176434913647566, No Iterations 3
ExecutionTime = 169.64 s  ClockTime = 171 s

Time = 10

velocityDampingConstraint velocityDamping damped 77 (0%) of cells, with max limit 300
smoothSolver:  Solving for Ux, Initial residual = 0.0287404878805038, Final residual = 0.002049060914445536, No Iterations 4
smoothSolver:  Solving for Uy, Initial residual = 0.05962627467702115, Final residual = 0.00444935056225993, No Iterations 4
smoothSolver:  Solving for Uz, Initial residual = 0.05851760475223133, Final residual = 0.004430096326464673, No Iterations 4
[OGL LOG][Proc: 0]: global_index_init: 0.059 [ms]
[OGL LOG][Proc: 0]p_local_coeffs: call_update: 0 [ms]
[OGL LOG][Proc: 0]p_non_local_coeffs: call_update: 0 [ms]
[OGL LOG][Proc: 0]p: update_local_matrix_data: 71.97499999999999 [ms]
[OGL LOG][Proc: 0]p: update_non_local_matrix_data: 0.388 [ms]
[OGL LOG][Proc: 0]p_matrix: call_update: 2.692 [ms]
[OGL LOG][Proc: 0]p_rhs: call_update: 3.952 [ms]
[OGL LOG][Preconditioner.H:121] Generate preconditioner BJ MaxBlockSize 1
[OGL LOG][Proc: 0]p: init_precond: 1.977 [ms]
[OGL LOG][StoppingCriterion.H:239] Creating stopping criterion with minIter 359 frequency 10
[OGL LOG][Proc: 0]p: generate_solver: 0.014 [ms]
[OGL LOG][Proc: 0]p: solve: 1214.896 [ms]
[OGL LOG][Proc: 0]p: copy_x_back: 4.908 [ms]
[OGL LOG][lduLduBase.H:330] 
Statistics:
	Time per iteration: 3274 [mu s]
	Time per residual norm calculation: 1282.000000 [mu s]
	Time per iteration and DOF: 0.259547 [ns]
	Retrieve results bandwidth 2.573000 [GByte/s]
[OGL LOG][Proc: 0]p: solve_multi_gpu: 1230.67 [ms]
BJcudaGKOCG:  Solving for p, Initial residual = 0.2949085715638717, Final residual = 0.00294592771986772, No Iterations 371
time step continuity errors : sum local = 0.01747244547872778, global = 0.002009195501078393, cumulative = 0.007655913570310413
smoothSolver:  Solving for nuTilda, Initial residual = 0.03544766896740396, Final residual = 0.00297369867884912, No Iterations 3
ExecutionTime = 178.1 s  ClockTime = 180 s

Time = 11

velocityDampingConstraint velocityDamping damped 374 (0%) of cells, with max limit 300
smoothSolver:  Solving for Ux, Initial residual = 0.03811200465819879, Final residual = 0.003126639636810351, No Iterations 4
smoothSolver:  Solving for Uy, Initial residual = 0.1039995457797694, Final residual = 0.009122697311746773, No Iterations 4
smoothSolver:  Solving for Uz, Initial residual = 0.0983268424117679, Final residual = 0.008587731207578497, No Iterations 4
[OGL LOG][Proc: 0]: global_index_init: 0.017 [ms]
[OGL LOG][Proc: 0]p_local_coeffs: call_update: 0 [ms]
[OGL LOG][Proc: 0]p_non_local_coeffs: call_update: 0 [ms]
[OGL LOG][Proc: 0]p: update_local_matrix_data: 69.033 [ms]
[OGL LOG][Proc: 0]p: update_non_local_matrix_data: 0.343 [ms]
[OGL LOG][Proc: 0]p_matrix: call_update: 3.007 [ms]
[OGL LOG][Proc: 0]p_rhs: call_update: 2.15 [ms]
[OGL LOG][Preconditioner.H:121] Generate preconditioner BJ MaxBlockSize 1
[OGL LOG][Proc: 0]p: init_precond: 2.065 [ms]
[OGL LOG][StoppingCriterion.H:239] Creating stopping criterion with minIter 222 frequency 8
[OGL LOG][Proc: 0]p: generate_solver: 0.014 [ms]
[OGL LOG][Proc: 0]p: solve: 3051.617 [ms]
[OGL LOG][Proc: 0]p: copy_x_back: 4.926 [ms]
[OGL LOG][lduLduBase.H:330] 
Statistics:
	Time per iteration: 3495 [mu s]
	Time per residual norm calculation: 1277.000000 [mu s]
	Time per iteration and DOF: 0.277067 [ns]
	Retrieve results bandwidth 2.563000 [GByte/s]
[OGL LOG][Proc: 0]p: solve_multi_gpu: 3066.077 [ms]
BJcudaGKOCG:  Solving for p, Initial residual = 0.3211690807643404, Final residual = 0.002927809452489712, No Iterations 873
time step continuity errors : sum local = 0.01542671933364425, global = -0.0003571129403291752, cumulative = 0.007298800629981238
smoothSolver:  Solving for nuTilda, Initial residual = 0.03216421597862235, Final residual = 0.002585138001846235, No Iterations 3
ExecutionTime = 188.37 s  ClockTime = 190 s

Time = 12

velocityDampingConstraint velocityDamping damped 19 (0%) of cells, with max limit 300
smoothSolver:  Solving for Ux, Initial residual = 0.03879511298085447, Final residual = 0.003348623691718832, No Iterations 4
smoothSolver:  Solving for Uy, Initial residual = 0.0802210575537466, Final residual = 0.007082049850121685, No Iterations 4
smoothSolver:  Solving for Uz, Initial residual = 0.07982014039780982, Final residual = 0.006817976568241216, No Iterations 4
[OGL LOG][Proc: 0]: global_index_init: 0.206 [ms]
[OGL LOG][Proc: 0]p_local_coeffs: call_update: 0 [ms]
[OGL LOG][Proc: 0]p_non_local_coeffs: call_update: 0 [ms]
[OGL LOG][Proc: 0]p: update_local_matrix_data: 71.874 [ms]
[OGL LOG][Proc: 0]p: update_non_local_matrix_data: 0.365 [ms]
[OGL LOG][Proc: 0]p_matrix: call_update: 3.066 [ms]
[OGL LOG][Proc: 0]p_rhs: call_update: 4.332 [ms]
[OGL LOG][Preconditioner.H:121] Generate preconditioner BJ MaxBlockSize 1
[OGL LOG][Proc: 0]p: init_precond: 1.965 [ms]
[OGL LOG][StoppingCriterion.H:239] Creating stopping criterion with minIter 523 frequency 13
[OGL LOG][Proc: 0]p: generate_solver: 0.015 [ms]
[OGL LOG][Proc: 0]p: solve: 2792.428 [ms]
[OGL LOG][Proc: 0]p: copy_x_back: 4.92 [ms]
[OGL LOG][lduLduBase.H:330] 
Statistics:
	Time per iteration: 3155 [mu s]
	Time per residual norm calculation: 1430.000000 [mu s]
	Time per iteration and DOF: 0.250114 [ns]
	Retrieve results bandwidth 2.567000 [GByte/s]
[OGL LOG][Proc: 0]p: solve_multi_gpu: 2808.987 [ms]
BJcudaGKOCG:  Solving for p, Initial residual = 0.5038469423390141, Final residual = 0.004906057229521579, No Iterations 885
time step continuity errors : sum local = 0.01481091738129056, global = -0.0004708023386982568, cumulative = 0.00682799829128298
smoothSolver:  Solving for nuTilda, Initial residual = 0.02864750883203197, Final residual = 0.002526189184859446, No Iterations 3
ExecutionTime = 198.39 s  ClockTime = 200 s

Time = 13

velocityDampingConstraint velocityDamping damped 14 (0%) of cells, with max limit 300
smoothSolver:  Solving for Ux, Initial residual = 0.0299375684310398, Final residual = 0.002368145929709892, No Iterations 4
smoothSolver:  Solving for Uy, Initial residual = 0.05873912585501413, Final residual = 0.004743126010282132, No Iterations 4
smoothSolver:  Solving for Uz, Initial residual = 0.06035025771725802, Final residual = 0.00461321449037619, No Iterations 4
[OGL LOG][Proc: 0]: global_index_init: 0.017 [ms]
[OGL LOG][Proc: 0]p_local_coeffs: call_update: 0 [ms]
[OGL LOG][Proc: 0]p_non_local_coeffs: call_update: 0 [ms]
[OGL LOG][Proc: 0]p: update_local_matrix_data: 72.247 [ms]
[OGL LOG][Proc: 0]p: update_non_local_matrix_data: 0.342 [ms]
[OGL LOG][Proc: 0]p_matrix: call_update: 3.179 [ms]
[OGL LOG][Proc: 0]p_rhs: call_update: 1.949 [ms]
[OGL LOG][Preconditioner.H:121] Generate preconditioner BJ MaxBlockSize 1
[OGL LOG][Proc: 0]p: init_precond: 1.834 [ms]
[OGL LOG][StoppingCriterion.H:239] Creating stopping criterion with minIter 531 frequency 13
[OGL LOG][Proc: 0]p: generate_solver: 0.014 [ms]
[OGL LOG][Proc: 0]p: solve: 1695.188 [ms]
[OGL LOG][Proc: 0]p: copy_x_back: 4.831 [ms]
[OGL LOG][lduLduBase.H:330] 
Statistics:
	Time per iteration: 3174 [mu s]
	Time per residual norm calculation: 1279.000000 [mu s]
	Time per iteration and DOF: 0.251620 [ns]
	Retrieve results bandwidth 2.614000 [GByte/s]
[OGL LOG][Proc: 0]p: solve_multi_gpu: 1708.585 [ms]
BJcudaGKOCG:  Solving for p, Initial residual = 0.3587857679373407, Final residual = 0.001831278979834541, No Iterations 534
time step continuity errors : sum local = 0.006992144575047298, global = 0.000844305123081089, cumulative = 0.007672303414364069
smoothSolver:  Solving for nuTilda, Initial residual = 0.02776056870367322, Final residual = 0.002344104355266153, No Iterations 3
ExecutionTime = 207.22 s  ClockTime = 209 s

Time = 14

velocityDampingConstraint velocityDamping damped 152 (0%) of cells, with max limit 300
smoothSolver:  Solving for Ux, Initial residual = 0.03590211368901666, Final residual = 0.002955265206226639, No Iterations 4
smoothSolver:  Solving for Uy, Initial residual = 0.06955623617675606, Final residual = 0.006272026241114689, No Iterations 4
smoothSolver:  Solving for Uz, Initial residual = 0.0691139258572822, Final residual = 0.006044422158062251, No Iterations 4
[OGL LOG][Proc: 0]: global_index_init: 0.033 [ms]
[OGL LOG][Proc: 0]p_local_coeffs: call_update: 0 [ms]
[OGL LOG][Proc: 0]p_non_local_coeffs: call_update: 0 [ms]
[OGL LOG][Proc: 0]p: update_local_matrix_data: 67.221 [ms]
[OGL LOG][Proc: 0]p: update_non_local_matrix_data: 0.337 [ms]
[OGL LOG][Proc: 0]p_matrix: call_update: 3.344 [ms]
[OGL LOG][Proc: 0]p_rhs: call_update: 3.299 [ms]
[OGL LOG][Preconditioner.H:121] Generate preconditioner BJ MaxBlockSize 1
[OGL LOG][Proc: 0]p: init_precond: 2.032 [ms]
[OGL LOG][StoppingCriterion.H:239] Creating stopping criterion with minIter 320 frequency 10
[OGL LOG][Proc: 0]p: generate_solver: 0.014 [ms]
[OGL LOG][Proc: 0]p: solve: 2987.672 [ms]
[OGL LOG][Proc: 0]p: copy_x_back: 5.112 [ms]
[OGL LOG][lduLduBase.H:330] 
Statistics:
	Time per iteration: 3430 [mu s]
	Time per residual norm calculation: 1280.000000 [mu s]
	Time per iteration and DOF: 0.271914 [ns]
	Retrieve results bandwidth 2.470000 [GByte/s]
[OGL LOG][Proc: 0]p: solve_multi_gpu: 3007.845 [ms]
BJcudaGKOCG:  Solving for p, Initial residual = 0.3323450517504778, Final residual = 0.002628761441736414, No Iterations 871
time step continuity errors : sum local = 0.008787753432878508, global = 0.000138817690060402, cumulative = 0.007811121104424472
smoothSolver:  Solving for nuTilda, Initial residual = 0.02579458883954793, Final residual = 0.002364834385962817, No Iterations 3
ExecutionTime = 217.32 s  ClockTime = 219 s

Time = 15

velocityDampingConstraint velocityDamping damped 11 (0%) of cells, with max limit 300
smoothSolver:  Solving for Ux, Initial residual = 0.02769465817754838, Final residual = 0.002265391278408022, No Iterations 4
smoothSolver:  Solving for Uy, Initial residual = 0.04739035468782519, Final residual = 0.004151025271245489, No Iterations 4
smoothSolver:  Solving for Uz, Initial residual = 0.04732387179429572, Final residual = 0.003999900165351838, No Iterations 4
[OGL LOG][Proc: 0]: global_index_init: 0.017 [ms]
[OGL LOG][Proc: 0]p_local_coeffs: call_update: 0 [ms]
[OGL LOG][Proc: 0]p_non_local_coeffs: call_update: 0 [ms]
[OGL LOG][Proc: 0]p: update_local_matrix_data: 69.545 [ms]
[OGL LOG][Proc: 0]p: update_non_local_matrix_data: 0.324 [ms]
[OGL LOG][Proc: 0]p_matrix: call_update: 3.421 [ms]
[OGL LOG][Proc: 0]p_rhs: call_update: 3.564 [ms]
[OGL LOG][Preconditioner.H:121] Generate preconditioner BJ MaxBlockSize 1
[OGL LOG][Proc: 0]p: init_precond: 2.052 [ms]
[OGL LOG][StoppingCriterion.H:239] Creating stopping criterion with minIter 522 frequency 13
[OGL LOG][Proc: 0]p: generate_solver: 0.015 [ms]
[OGL LOG][Proc: 0]p: solve: 1871.557 [ms]
[OGL LOG][Proc: 0]p: copy_x_back: 5.041 [ms]
[OGL LOG][lduLduBase.H:330] 
Statistics:
	Time per iteration: 3193 [mu s]
	Time per residual norm calculation: 1278.000000 [mu s]
	Time per iteration and DOF: 0.253126 [ns]
	Retrieve results bandwidth 2.505000 [GByte/s]
[OGL LOG][Proc: 0]p: solve_multi_gpu: 1889.747 [ms]
BJcudaGKOCG:  Solving for p, Initial residual = 0.3203014064202707, Final residual = 0.003183566596499626, No Iterations 586
time step continuity errors : sum local = 0.009858669344987353, global = 0.001775316944063709, cumulative = 0.009586438048488181
smoothSolver:  Solving for nuTilda, Initial residual = 0.0257356710845804, Final residual = 0.002213016375043616, No Iterations 3
ExecutionTime = 226.31 s  ClockTime = 228 s

Time = 16

velocityDampingConstraint velocityDamping damped 0 (0%) of cells, with max limit 300
smoothSolver:  Solving for Ux, Initial residual = 0.0179554233119899, Final residual = 0.00133766640613075, No Iterations 4
smoothSolver:  Solving for Uy, Initial residual = 0.037947125697741, Final residual = 0.002882474883903194, No Iterations 4
smoothSolver:  Solving for Uz, Initial residual = 0.04232806452742186, Final residual = 0.003304131255430807, No Iterations 4
[OGL LOG][Proc: 0]: global_index_init: 0.315 [ms]
[OGL LOG][Proc: 0]p_local_coeffs: call_update: 0 [ms]
[OGL LOG][Proc: 0]p_non_local_coeffs: call_update: 0 [ms]
[OGL LOG][Proc: 0]p: update_local_matrix_data: 66.601 [ms]
[OGL LOG][Proc: 0]p: update_non_local_matrix_data: 0.367 [ms]
[OGL LOG][Proc: 0]p_matrix: call_update: 3.042 [ms]
[OGL LOG][Proc: 0]p_rhs: call_update: 1.802 [ms]
[OGL LOG][Preconditioner.H:121] Generate preconditioner BJ MaxBlockSize 1
[OGL LOG][Proc: 0]p: init_precond: 1.605 [ms]
[OGL LOG][StoppingCriterion.H:239] Creating stopping criterion with minIter 351 frequency 10
[OGL LOG][Proc: 0]p: generate_solver: 0.018 [ms]
[OGL LOG][Proc: 0]p: solve: 1318.973 [ms]
[OGL LOG][Proc: 0]p: copy_x_back: 5.068 [ms]
[OGL LOG][lduLduBase.H:330] 
Statistics:
	Time per iteration: 3289 [mu s]
	Time per residual norm calculation: 1286.000000 [mu s]
	Time per iteration and DOF: 0.260736 [ns]
	Retrieve results bandwidth 2.492000 [GByte/s]
[OGL LOG][Proc: 0]p: solve_multi_gpu: 1337.561 [ms]
BJcudaGKOCG:  Solving for p, Initial residual = 0.4124063704966066, Final residual = 0.00386964329717896, No Iterations 401
time step continuity errors : sum local = 0.00943548291328029, global = 0.001062573678263441, cumulative = 0.01064901172675162
smoothSolver:  Solving for nuTilda, Initial residual = 0.02364508633971762, Final residual = 0.002231602842016192, No Iterations 3
ExecutionTime = 234.7 s  ClockTime = 236 s

Time = 17

velocityDampingConstraint velocityDamping damped 11 (0%) of cells, with max limit 300
smoothSolver:  Solving for Ux, Initial residual = 0.01518859059407207, Final residual = 0.001146867407576477, No Iterations 4
smoothSolver:  Solving for Uy, Initial residual = 0.04281799702758787, Final residual = 0.003579165096097118, No Iterations 4
smoothSolver:  Solving for Uz, Initial residual = 0.04625237391600096, Final residual = 0.003873259964534459, No Iterations 4
[OGL LOG][Proc: 0]: global_index_init: 0.016 [ms]
[OGL LOG][Proc: 0]p_local_coeffs: call_update: 0 [ms]
[OGL LOG][Proc: 0]p_non_local_coeffs: call_update: 0 [ms]
[OGL LOG][Proc: 0]p: update_local_matrix_data: 71.767 [ms]
[OGL LOG][Proc: 0]p: update_non_local_matrix_data: 0.336 [ms]
[OGL LOG][Proc: 0]p_matrix: call_update: 2.857 [ms]
[OGL LOG][Proc: 0]p_rhs: call_update: 4.722 [ms]
[OGL LOG][Preconditioner.H:121] Generate preconditioner BJ MaxBlockSize 1
[OGL LOG][Proc: 0]p: init_precond: 2.079 [ms]
[OGL LOG][StoppingCriterion.H:239] Creating stopping criterion with minIter 240 frequency 8
[OGL LOG][Proc: 0]p: generate_solver: 0.013 [ms]
[OGL LOG][Proc: 0]p: solve: 2702.085 [ms]
[OGL LOG][Proc: 0]p: copy_x_back: 5.038 [ms]
[OGL LOG][lduLduBase.H:330] 
Statistics:
	Time per iteration: 3212 [mu s]
	Time per residual norm calculation: 1282.000000 [mu s]
	Time per iteration and DOF: 0.254632 [ns]
	Retrieve results bandwidth 2.506000 [GByte/s]
[OGL LOG][Proc: 0]p: solve_multi_gpu: 2719.103 [ms]
BJcudaGKOCG:  Solving for p, Initial residual = 0.4266361727998255, Final residual = 0.004217695509962089, No Iterations 841
time step continuity errors : sum local = 0.008692203140649217, global = -0.0002062962008348316, cumulative = 0.01044271552591679
smoothSolver:  Solving for nuTilda, Initial residual = 0.02467092967204576, Final residual = 0.002077165138461995, No Iterations 3
ExecutionTime = 244.52 s  ClockTime = 246 s

Time = 18

velocityDampingConstraint velocityDamping damped 44 (0%) of cells, with max limit 300
smoothSolver:  Solving for Ux, Initial residual = 0.01522797555127516, Final residual = 0.001226207082672619, No Iterations 4
smoothSolver:  Solving for Uy, Initial residual = 0.03575418417041511, Final residual = 0.002951097483704087, No Iterations 4
smoothSolver:  Solving for Uz, Initial residual = 0.0374988153273907, Final residual = 0.003036662126085973, No Iterations 4
[OGL LOG][Proc: 0]: global_index_init: 0.017 [ms]
[OGL LOG][Proc: 0]p_local_coeffs: call_update: 0 [ms]
[OGL LOG][Proc: 0]p_non_local_coeffs: call_update: 0 [ms]
[OGL LOG][Proc: 0]p: update_local_matrix_data: 72.652 [ms]
[OGL LOG][Proc: 0]p: update_non_local_matrix_data: 0.365 [ms]
[OGL LOG][Proc: 0]p_matrix: call_update: 3.452 [ms]
[OGL LOG][Proc: 0]p_rhs: call_update: 1.648 [ms]
[OGL LOG][Preconditioner.H:121] Generate preconditioner BJ MaxBlockSize 1
[OGL LOG][Proc: 0]p: init_precond: 1.621 [ms]
[OGL LOG][StoppingCriterion.H:239] Creating stopping criterion with minIter 504 frequency 12
[OGL LOG][Proc: 0]p: generate_solver: 0.015 [ms]
[OGL LOG][Proc: 0]p: solve: 2678.2 [ms]
[OGL LOG][Proc: 0]p: copy_x_back: 4.966 [ms]
[OGL LOG][lduLduBase.H:330] 
Statistics:
	Time per iteration: 3139 [mu s]
	Time per residual norm calculation: 1277.000000 [mu s]
	Time per iteration and DOF: 0.248845 [ns]
	Retrieve results bandwidth 2.543000 [GByte/s]
[OGL LOG][Proc: 0]p: solve_multi_gpu: 2691.946 [ms]
BJcudaGKOCG:  Solving for p, Initial residual = 0.3445687139633257, Final residual = 0.00328069355050071, No Iterations 853
time step continuity errors : sum local = 0.00732029356600816, global = -0.0002835985780140715, cumulative = 0.01015911694790272
smoothSolver:  Solving for nuTilda, Initial residual = 0.02204139389857282, Final residual = 0.002116294503983634, No Iterations 3
ExecutionTime = 254.39 s  ClockTime = 256 s

Time = 19

velocityDampingConstraint velocityDamping damped 0 (0%) of cells, with max limit 300
smoothSolver:  Solving for Ux, Initial residual = 0.01471246741449569, Final residual = 0.001280662246504272, No Iterations 4
smoothSolver:  Solving for Uy, Initial residual = 0.03509088946818848, Final residual = 0.00298724284577659, No Iterations 4
smoothSolver:  Solving for Uz, Initial residual = 0.03536049537758598, Final residual = 0.002906910699097651, No Iterations 4
[OGL LOG][Proc: 0]: global_index_init: 0.206 [ms]
[OGL LOG][Proc: 0]p_local_coeffs: call_update: 0 [ms]
[OGL LOG][Proc: 0]p_non_local_coeffs: call_update: 0 [ms]
[OGL LOG][Proc: 0]p: update_local_matrix_data: 72.535 [ms]
[OGL LOG][Proc: 0]p: update_non_local_matrix_data: 0.365 [ms]
[OGL LOG][Proc: 0]p_matrix: call_update: 3.275 [ms]
[OGL LOG][Proc: 0]p_rhs: call_update: 2.264 [ms]
[OGL LOG][Preconditioner.H:121] Generate preconditioner BJ MaxBlockSize 1
[OGL LOG][Proc: 0]p: init_precond: 1.603 [ms]
[OGL LOG][StoppingCriterion.H:239] Creating stopping criterion with minIter 511 frequency 13
[OGL LOG][Proc: 0]p: generate_solver: 0.014 [ms]
[OGL LOG][Proc: 0]p: solve: 1658.277 [ms]
[OGL LOG][Proc: 0]p: copy_x_back: 4.976 [ms]
[OGL LOG][lduLduBase.H:330] 
Statistics:
	Time per iteration: 3182 [mu s]
	Time per residual norm calculation: 1267.000000 [mu s]
	Time per iteration and DOF: 0.252254 [ns]
	Retrieve results bandwidth 2.538000 [GByte/s]
[OGL LOG][Proc: 0]p: solve_multi_gpu: 1673.058 [ms]
BJcudaGKOCG:  Solving for p, Initial residual = 0.3736160811591621, Final residual = 0.001329164882838408, No Iterations 521
time step continuity errors : sum local = 0.002515913742753336, global = 0.0002026233711906996, cumulative = 0.01036174031909342
smoothSolver:  Solving for nuTilda, Initial residual = 0.02540600356736743, Final residual = 0.001975158633102649, No Iterations 3
ExecutionTime = 263.22 s  ClockTime = 265 s

Time = 20

velocityDampingConstraint velocityDamping damped 0 (0%) of cells, with max limit 300
smoothSolver:  Solving for Ux, Initial residual = 0.01451720171923439, Final residual = 0.001262246836803075, No Iterations 4
smoothSolver:  Solving for Uy, Initial residual = 0.03315848874328541, Final residual = 0.003007830864446, No Iterations 4
smoothSolver:  Solving for Uz, Initial residual = 0.0329210535911529, Final residual = 0.002874583824725962, No Iterations 4
[OGL LOG][Proc: 0]: global_index_init: 0.022 [ms]
[OGL LOG][Proc: 0]p_local_coeffs: call_update: 0 [ms]
[OGL LOG][Proc: 0]p_non_local_coeffs: call_update: 0 [ms]
[OGL LOG][Proc: 0]p: update_local_matrix_data: 67.56399999999999 [ms]
[OGL LOG][Proc: 0]p: update_non_local_matrix_data: 0.357 [ms]
[OGL LOG][Proc: 0]p_matrix: call_update: 2.465 [ms]
[OGL LOG][Proc: 0]p_rhs: call_update: 2.548 [ms]
[OGL LOG][Preconditioner.H:121] Generate preconditioner BJ MaxBlockSize 1
[OGL LOG][Proc: 0]p: init_precond: 1.916 [ms]
[OGL LOG][StoppingCriterion.H:239] Creating stopping criterion with minIter 312 frequency 10
[OGL LOG][Proc: 0]p: generate_solver: 0.016 [ms]
[OGL LOG][Proc: 0]p: solve: 2632.407 [ms]
[OGL LOG][Proc: 0]p: copy_x_back: 4.886 [ms]
[OGL LOG][lduLduBase.H:330] 
Statistics:
	Time per iteration: 3167 [mu s]
	Time per residual norm calculation: 1275.000000 [mu s]
	Time per iteration and DOF: 0.251065 [ns]
	Retrieve results bandwidth 2.584000 [GByte/s]
[OGL LOG][Proc: 0]p: solve_multi_gpu: 2650.864 [ms]
BJcudaGKOCG:  Solving for p, Initial residual = 0.3838047402931716, Final residual = 0.003747435119782883, No Iterations 831
time step continuity errors : sum local = 0.005968062112993788, global = 0.0001113638182685871, cumulative = 0.01047310413736201
smoothSolver:  Solving for nuTilda, Initial residual = 0.0209694025740692, Final residual = 0.002051611933981274, No Iterations 3
ExecutionTime = 272.94 s  ClockTime = 275 s

Time = 21

velocityDampingConstraint velocityDamping damped 9 (0%) of cells, with max limit 300
smoothSolver:  Solving for Ux, Initial residual = 0.01217015626043356, Final residual = 0.001021540865471466, No Iterations 4
smoothSolver:  Solving for Uy, Initial residual = 0.02555250007397568, Final residual = 0.002239094056962647, No Iterations 4
smoothSolver:  Solving for Uz, Initial residual = 0.02663453683653204, Final residual = 0.002206685180950837, No Iterations 4
[OGL LOG][Proc: 0]: global_index_init: 0.015 [ms]
[OGL LOG][Proc: 0]p_local_coeffs: call_update: 0 [ms]
[OGL LOG][Proc: 0]p_non_local_coeffs: call_update: 0 [ms]
[OGL LOG][Proc: 0]p: update_local_matrix_data: 70.36799999999999 [ms]
[OGL LOG][Proc: 0]p: update_non_local_matrix_data: 0.311 [ms]
[OGL LOG][Proc: 0]p_matrix: call_update: 2.91 [ms]
[OGL LOG][Proc: 0]p_rhs: call_update: 3.413 [ms]
[OGL LOG][Preconditioner.H:121] Generate preconditioner BJ MaxBlockSize 1
[OGL LOG][Proc: 0]p: init_precond: 1.99 [ms]
[OGL LOG][StoppingCriterion.H:239] Creating stopping criterion with minIter 498 frequency 12
[OGL LOG][Proc: 0]p: generate_solver: 0.014 [ms]
[OGL LOG][Proc: 0]p: solve: 2610.476 [ms]
[OGL LOG][Proc: 0]p: copy_x_back: 4.988 [ms]
[OGL LOG][lduLduBase.H:330] 
Statistics:
	Time per iteration: 3148 [mu s]
	Time per residual norm calculation: 1422.000000 [mu s]
	Time per iteration and DOF: 0.249559 [ns]
	Retrieve results bandwidth 2.532000 [GByte/s]
[OGL LOG][Proc: 0]p: solve_multi_gpu: 2626.963 [ms]
BJcudaGKOCG:  Solving for p, Initial residual = 0.3107087780112572, Final residual = 0.002827841018625004, No Iterations 829
time step continuity errors : sum local = 0.004660063574451807, global = 0.0002198366895802194, cumulative = 0.01069294082694222
smoothSolver:  Solving for nuTilda, Initial residual = 0.02865665999696619, Final residual = 0.001905012752051885, No Iterations 3
ExecutionTime = 282.69 s  ClockTime = 284 s

Time = 22

velocityDampingConstraint velocityDamping damped 2 (0%) of cells, with max limit 300
smoothSolver:  Solving for Ux, Initial residual = 0.009739365061939773, Final residual = 0.0008103295865829056, No Iterations 4
smoothSolver:  Solving for Uy, Initial residual = 0.02419417391190264, Final residual = 0.001972096658222137, No Iterations 4
smoothSolver:  Solving for Uz, Initial residual = 0.02722022254092669, Final residual = 0.002179970343578496, No Iterations 4
[OGL LOG][Proc: 0]: global_index_init: 0.016 [ms]
[OGL LOG][Proc: 0]p_local_coeffs: call_update: 0 [ms]
[OGL LOG][Proc: 0]p_non_local_coeffs: call_update: 0 [ms]
[OGL LOG][Proc: 0]p: update_local_matrix_data: 69.456 [ms]
[OGL LOG][Proc: 0]p: update_non_local_matrix_data: 0.377 [ms]
[OGL LOG][Proc: 0]p_matrix: call_update: 3.043 [ms]
[OGL LOG][Proc: 0]p_rhs: call_update: 2.381 [ms]
[OGL LOG][Preconditioner.H:121] Generate preconditioner BJ MaxBlockSize 1
[OGL LOG][Proc: 0]p: init_precond: 1.904 [ms]
[OGL LOG][StoppingCriterion.H:239] Creating stopping criterion with minIter 497 frequency 12
[OGL LOG][Proc: 0]p: generate_solver: 0.014 [ms]
[OGL LOG][Proc: 0]p: solve: 1614.66 [ms]
[OGL LOG][Proc: 0]p: copy_x_back: 4.781 [ms]
[OGL LOG][lduLduBase.H:330] 
Statistics:
	Time per iteration: 3197 [mu s]
	Time per residual norm calculation: 1284.000000 [mu s]
	Time per iteration and DOF: 0.253443 [ns]
	Retrieve results bandwidth 2.641000 [GByte/s]
[OGL LOG][Proc: 0]p: solve_multi_gpu: 1630.069 [ms]
BJcudaGKOCG:  Solving for p, Initial residual = 0.3019301916810949, Final residual = 0.002116289099478251, No Iterations 505
time step continuity errors : sum local = 0.003362908455679743, global = -0.0005672694258549915, cumulative = 0.01012567140108723
smoothSolver:  Solving for nuTilda, Initial residual = 0.0199820597809698, Final residual = 0.001991183607334967, No Iterations 3
ExecutionTime = 291.53 s  ClockTime = 293 s

Time = 23

velocityDampingConstraint velocityDamping damped 0 (0%) of cells, with max limit 300
smoothSolver:  Solving for Ux, Initial residual = 0.00918484133190919, Final residual = 0.0007415510896132313, No Iterations 4
smoothSolver:  Solving for Uy, Initial residual = 0.02473967519371717, Final residual = 0.002086012905123024, No Iterations 4
smoothSolver:  Solving for Uz, Initial residual = 0.02667335664017351, Final residual = 0.002212232636571249, No Iterations 4
[OGL LOG][Proc: 0]: global_index_init: 0.169 [ms]
[OGL LOG][Proc: 0]p_local_coeffs: call_update: 0 [ms]
[OGL LOG][Proc: 0]p_non_local_coeffs: call_update: 0 [ms]
[OGL LOG][Proc: 0]p: update_local_matrix_data: 72.849 [ms]
[OGL LOG][Proc: 0]p: update_non_local_matrix_data: 0.368 [ms]
[OGL LOG][Proc: 0]p_matrix: call_update: 3.133 [ms]
[OGL LOG][Proc: 0]p_rhs: call_update: 3.366 [ms]
[OGL LOG][Preconditioner.H:121] Generate preconditioner BJ MaxBlockSize 1
[OGL LOG][Proc: 0]p: init_precond: 1.245 [ms]
[OGL LOG][StoppingCriterion.H:239] Creating stopping criterion with minIter 303 frequency 10
[OGL LOG][Proc: 0]p: generate_solver: 0.015 [ms]
[OGL LOG][Proc: 0]p: solve: 2621.961 [ms]
[OGL LOG][Proc: 0]p: copy_x_back: 4.881 [ms]
[OGL LOG][lduLduBase.H:330] 
Statistics:
	Time per iteration: 3193 [mu s]
	Time per residual norm calculation: 1276.000000 [mu s]
	Time per iteration and DOF: 0.253126 [ns]
	Retrieve results bandwidth 2.587000 [GByte/s]
[OGL LOG][Proc: 0]p: solve_multi_gpu: 2636.766 [ms]
BJcudaGKOCG:  Solving for p, Initial residual = 0.2706046461198732, Final residual = 0.002595644610298161, No Iterations 821
time step continuity errors : sum local = 0.004151957558285633, global = -9.868236764136513e-05, cumulative = 0.01002698903344587
smoothSolver:  Solving for nuTilda, Initial residual = 0.0316452959049275, Final residual = 0.0018291932994915, No Iterations 3
ExecutionTime = 301.23 s  ClockTime = 303 s

Time = 24

velocityDampingConstraint velocityDamping damped 0 (0%) of cells, with max limit 300
smoothSolver:  Solving for Ux, Initial residual = 0.008760531992192122, Final residual = 0.0007551974160172415, No Iterations 4
smoothSolver:  Solving for Uy, Initial residual = 0.0235021744038413, Final residual = 0.002024039289071607, No Iterations 4
smoothSolver:  Solving for Uz, Initial residual = 0.02407914008196662, Final residual = 0.002039331924424972, No Iterations 4
[OGL LOG][Proc: 0]: global_index_init: 0.016 [ms]
[OGL LOG][Proc: 0]p_local_coeffs: call_update: 0 [ms]
[OGL LOG][Proc: 0]p_non_local_coeffs: call_update: 0 [ms]
[OGL LOG][Proc: 0]p: update_local_matrix_data: 61.696 [ms]
[OGL LOG][Proc: 0]p: update_non_local_matrix_data: 0.331 [ms]
[OGL LOG][Proc: 0]p_matrix: call_update: 2.819 [ms]
[OGL LOG][Proc: 0]p_rhs: call_update: 4.558 [ms]
[OGL LOG][Preconditioner.H:121] Generate preconditioner BJ MaxBlockSize 1
[OGL LOG][Proc: 0]p: init_precond: 1.759 [ms]
[OGL LOG][StoppingCriterion.H:239] Creating stopping criterion with minIter 492 frequency 12
[OGL LOG][Proc: 0]p: generate_solver: 0.014 [ms]
[OGL LOG][Proc: 0]p: solve: 1575.899 [ms]
[OGL LOG][Proc: 0]p: copy_x_back: 4.967 [ms]
[OGL LOG][lduLduBase.H:330] 
Statistics:
	Time per iteration: 3196 [mu s]
	Time per residual norm calculation: 1278.000000 [mu s]
	Time per iteration and DOF: 0.253364 [ns]
	Retrieve results bandwidth 2.542000 [GByte/s]
[OGL LOG][Proc: 0]p: solve_multi_gpu: 1601.856 [ms]
BJcudaGKOCG:  Solving for p, Initial residual = 0.3464815750738092, Final residual = 0.00223569050927625, No Iterations 493
time step continuity errors : sum local = 0.002460866658834263, global = -0.0003025528154953912, cumulative = 0.009724436217950477
smoothSolver:  Solving for nuTilda, Initial residual = 0.01875461665657875, Final residual = 0.001092960974591045, No Iterations 4
ExecutionTime = 309.94 s  ClockTime = 312 s

Time = 25

velocityDampingConstraint velocityDamping damped 0 (0%) of cells, with max limit 300
smoothSolver:  Solving for Ux, Initial residual = 0.008586069250011649, Final residual = 0.0007790434327189407, No Iterations 4
smoothSolver:  Solving for Uy, Initial residual = 0.02303968408505029, Final residual = 0.002046187759961253, No Iterations 4
smoothSolver:  Solving for Uz, Initial residual = 0.02318285979702786, Final residual = 0.002005971227962947, No Iterations 4
[OGL LOG][Proc: 0]: global_index_init: 0.133 [ms]
[OGL LOG][Proc: 0]p_local_coeffs: call_update: 0 [ms]
[OGL LOG][Proc: 0]p_non_local_coeffs: call_update: 0 [ms]
[OGL LOG][Proc: 0]p: update_local_matrix_data: 72.16 [ms]
[OGL LOG][Proc: 0]p: update_non_local_matrix_data: 0.334 [ms]
[OGL LOG][Proc: 0]p_matrix: call_update: 3.215 [ms]
[OGL LOG][Proc: 0]p_rhs: call_update: 2.164 [ms]
[OGL LOG][Preconditioner.H:121] Generate preconditioner BJ MaxBlockSize 1
[OGL LOG][Proc: 0]p: init_precond: 1.852 [ms]
[OGL LOG][StoppingCriterion.H:239] Creating stopping criterion with minIter 295 frequency 9
[OGL LOG][Proc: 0]p: generate_solver: 0.017 [ms]
[OGL LOG][Proc: 0]p: solve: 1025.382 [ms]
[OGL LOG][Proc: 0]p: copy_x_back: 4.782 [ms]
[OGL LOG][lduLduBase.H:330] 
Statistics:
	Time per iteration: 3340 [mu s]
	Time per residual norm calculation: 1424.000000 [mu s]
	Time per iteration and DOF: 0.264779 [ns]
	Retrieve results bandwidth 2.641000 [GByte/s]
[OGL LOG][Proc: 0]p: solve_multi_gpu: 1039.188 [ms]
BJcudaGKOCG:  Solving for p, Initial residual = 0.3242012931473697, Final residual = 0.003235963558338158, No Iterations 307
time step continuity errors : sum local = 0.003443442111505123, global = 0.0002739623290580806, cumulative = 0.009998398547008557
smoothSolver:  Solving for nuTilda, Initial residual = 0.03176683950928461, Final residual = 0.001750545657966893, No Iterations 3
ExecutionTime = 318.11 s  ClockTime = 320 s

Time = 26

velocityDampingConstraint velocityDamping damped 0 (0%) of cells, with max limit 300
smoothSolver:  Solving for Ux, Initial residual = 0.008585061690820784, Final residual = 0.0007707536951807026, No Iterations 4
smoothSolver:  Solving for Uy, Initial residual = 0.02103400788175645, Final residual = 0.001934489999972533, No Iterations 4
smoothSolver:  Solving for Uz, Initial residual = 0.02142402628504259, Final residual = 0.001877003185073591, No Iterations 4
[OGL LOG][Proc: 0]: global_index_init: 0.016 [ms]
[OGL LOG][Proc: 0]p_local_coeffs: call_update: 0 [ms]
[OGL LOG][Proc: 0]p_non_local_coeffs: call_update: 0 [ms]
[OGL LOG][Proc: 0]p: update_local_matrix_data: 67.52200000000001 [ms]
[OGL LOG][Proc: 0]p: update_non_local_matrix_data: 0.339 [ms]
[OGL LOG][Proc: 0]p_matrix: call_update: 3.027 [ms]
[OGL LOG][Proc: 0]p_rhs: call_update: 4.619 [ms]
[OGL LOG][Preconditioner.H:121] Generate preconditioner BJ MaxBlockSize 1
[OGL LOG][Proc: 0]p: init_precond: 0.928 [ms]
[OGL LOG][StoppingCriterion.H:239] Creating stopping criterion with minIter 184 frequency 7
[OGL LOG][Proc: 0]p: generate_solver: 0.015 [ms]
[OGL LOG][Proc: 0]p: solve: 2644 [ms]
[OGL LOG][Proc: 0]p: copy_x_back: 4.868 [ms]
[OGL LOG][lduLduBase.H:330] 
Statistics:
	Time per iteration: 3252 [mu s]
	Time per residual norm calculation: 1424.000000 [mu s]
	Time per iteration and DOF: 0.257803 [ns]
	Retrieve results bandwidth 2.594000 [GByte/s]
[OGL LOG][Proc: 0]p: solve_multi_gpu: 2663.65 [ms]
BJcudaGKOCG:  Solving for p, Initial residual = 0.3131768210760072, Final residual = 0.003038571701824973, No Iterations 813
time step continuity errors : sum local = 0.002915896965033185, global = 7.374717360631731e-05, cumulative = 0.01007214572061487
smoothSolver:  Solving for nuTilda, Initial residual = 0.01740597604054721, Final residual = 0.001054663385953291, No Iterations 4
ExecutionTime = 327.93 s  ClockTime = 330 s

Time = 27

velocityDampingConstraint velocityDamping damped 0 (0%) of cells, with max limit 300
smoothSolver:  Solving for Ux, Initial residual = 0.007500953723105157, Final residual = 0.0006584234078560634, No Iterations 4
smoothSolver:  Solving for Uy, Initial residual = 0.01889576430253283, Final residual = 0.001739455074181276, No Iterations 4
smoothSolver:  Solving for Uz, Initial residual = 0.01959277654321331, Final residual = 0.001688867418158151, No Iterations 4
[OGL LOG][Proc: 0]: global_index_init: 0.015 [ms]
[OGL LOG][Proc: 0]p_local_coeffs: call_update: 0 [ms]
[OGL LOG][Proc: 0]p_non_local_coeffs: call_update: 0 [ms]
[OGL LOG][Proc: 0]p: update_local_matrix_data: 63.642 [ms]
[OGL LOG][Proc: 0]p: update_non_local_matrix_data: 0.379 [ms]
[OGL LOG][Proc: 0]p_matrix: call_update: 2.946 [ms]
[OGL LOG][Proc: 0]p_rhs: call_update: 2.041 [ms]
[OGL LOG][Preconditioner.H:121] Generate preconditioner BJ MaxBlockSize 1
[OGL LOG][Proc: 0]p: init_precond: 1.963 [ms]
[OGL LOG][StoppingCriterion.H:239] Creating stopping criterion with minIter 487 frequency 12
[OGL LOG][Proc: 0]p: generate_solver: 0.016 [ms]
[OGL LOG][Proc: 0]p: solve: 1784.667 [ms]
[OGL LOG][Proc: 0]p: copy_x_back: 5.1 [ms]
[OGL LOG][lduLduBase.H:330] 
Statistics:
	Time per iteration: 3620 [mu s]
	Time per residual norm calculation: 1138.000000 [mu s]
	Time per iteration and DOF: 0.286977 [ns]
	Retrieve results bandwidth 2.476000 [GByte/s]
[OGL LOG][Proc: 0]p: solve_multi_gpu: 1804.819 [ms]
BJcudaGKOCG:  Solving for p, Initial residual = 0.2098265592404573, Final residual = 0.001370991315560506, No Iterations 493
time step continuity errors : sum local = 0.001761096160955431, global = 0.0002482503285973193, cumulative = 0.01032039604921219
smoothSolver:  Solving for nuTilda, Initial residual = 0.03067264475860102, Final residual = 0.001680508676836022, No Iterations 3
ExecutionTime = 336.82 s  ClockTime = 339 s

Time = 28

velocityDampingConstraint velocityDamping damped 0 (0%) of cells, with max limit 300
smoothSolver:  Solving for Ux, Initial residual = 0.00677331438515871, Final residual = 0.000591021917290938, No Iterations 4
smoothSolver:  Solving for Uy, Initial residual = 0.01863733343342322, Final residual = 0.001680913102822771, No Iterations 4
smoothSolver:  Solving for Uz, Initial residual = 0.01943150077746085, Final residual = 0.001687698177142553, No Iterations 4
[OGL LOG][Proc: 0]: global_index_init: 0.017 [ms]
[OGL LOG][Proc: 0]p_local_coeffs: call_update: 0 [ms]
[OGL LOG][Proc: 0]p_non_local_coeffs: call_update: 0 [ms]
[OGL LOG][Proc: 0]p: update_local_matrix_data: 66.875 [ms]
[OGL LOG][Proc: 0]p: update_non_local_matrix_data: 0.336 [ms]
[OGL LOG][Proc: 0]p_matrix: call_update: 2.936 [ms]
[OGL LOG][Proc: 0]p_rhs: call_update: 2.55 [ms]
[OGL LOG][Preconditioner.H:121] Generate preconditioner BJ MaxBlockSize 1
[OGL LOG][Proc: 0]p: init_precond: 1.254 [ms]
[OGL LOG][StoppingCriterion.H:239] Creating stopping criterion with minIter 295 frequency 8
[OGL LOG][Proc: 0]p: generate_solver: 0.015 [ms]
[OGL LOG][Proc: 0]p: solve: 1110.357 [ms]
[OGL LOG][Proc: 0]p: copy_x_back: 5.057 [ms]
[OGL LOG][lduLduBase.H:330] 
Statistics:
	Time per iteration: 3374 [mu s]
	Time per residual norm calculation: 1422.000000 [mu s]
	Time per iteration and DOF: 0.267475 [ns]
	Retrieve results bandwidth 2.497000 [GByte/s]
[OGL LOG][Proc: 0]p: solve_multi_gpu: 1128.745 [ms]
BJcudaGKOCG:  Solving for p, Initial residual = 0.2022736528862936, Final residual = 0.002015204456487414, No Iterations 329
time step continuity errors : sum local = 0.002404066176268524, global = -0.0002640297279518985, cumulative = 0.0100563663212603
smoothSolver:  Solving for nuTilda, Initial residual = 0.01607936608835598, Final residual = 0.001011508640999336, No Iterations 4
ExecutionTime = 345.08 s  ClockTime = 347 s

Time = 29

velocityDampingConstraint velocityDamping damped 0 (0%) of cells, with max limit 300
smoothSolver:  Solving for Ux, Initial residual = 0.006746713959054176, Final residual = 0.0005797504051492125, No Iterations 4
smoothSolver:  Solving for Uy, Initial residual = 0.01880651168857966, Final residual = 0.001699225141737343, No Iterations 4
smoothSolver:  Solving for Uz, Initial residual = 0.01935384116911903, Final residual = 0.001698293282680437, No Iterations 4
[OGL LOG][Proc: 0]: global_index_init: 0.019 [ms]
[OGL LOG][Proc: 0]p_local_coeffs: call_update: 0 [ms]
[OGL LOG][Proc: 0]p_non_local_coeffs: call_update: 0 [ms]
[OGL LOG][Proc: 0]p: update_local_matrix_data: 67.32899999999999 [ms]
[OGL LOG][Proc: 0]p: update_non_local_matrix_data: 0.334 [ms]
[OGL LOG][Proc: 0]p_matrix: call_update: 3.421 [ms]
[OGL LOG][Proc: 0]p_rhs: call_update: 3.557 [ms]
[OGL LOG][Preconditioner.H:121] Generate preconditioner BJ MaxBlockSize 1
[OGL LOG][Proc: 0]p: init_precond: 1.775 [ms]
[OGL LOG][StoppingCriterion.H:239] Creating stopping criterion with minIter 197 frequency 8
[OGL LOG][Proc: 0]p: generate_solver: 0.015 [ms]
[OGL LOG][Proc: 0]p: solve: 2604.412 [ms]
[OGL LOG][Proc: 0]p: copy_x_back: 5.058 [ms]
[OGL LOG][lduLduBase.H:330] 
Statistics:
	Time per iteration: 3251 [mu s]
	Time per residual norm calculation: 1277.000000 [mu s]
	Time per iteration and DOF: 0.257724 [ns]
	Retrieve results bandwidth 2.497000 [GByte/s]
[OGL LOG][Proc: 0]p: solve_multi_gpu: 2624.014 [ms]
BJcudaGKOCG:  Solving for p, Initial residual = 0.1856531931160229, Final residual = 0.00176278017656215, No Iterations 801
time step continuity errors : sum local = 0.002060069314090351, global = -6.312859659021764e-05, cumulative = 0.009993237724670078
smoothSolver:  Solving for nuTilda, Initial residual = 0.02861766700483522, Final residual = 0.001610933687685532, No Iterations 3
ExecutionTime = 354.73 s  ClockTime = 357 s

Time = 30

velocityDampingConstraint velocityDamping damped 0 (0%) of cells, with max limit 300
smoothSolver:  Solving for Ux, Initial residual = 0.006466215832763101, Final residual = 0.0005716901626293752, No Iterations 4
smoothSolver:  Solving for Uy, Initial residual = 0.01851738645879315, Final residual = 0.001682485901120662, No Iterations 4
smoothSolver:  Solving for Uz, Initial residual = 0.01865955886939514, Final residual = 0.001637837030406764, No Iterations 4
[OGL LOG][Proc: 0]: global_index_init: 0.161 [ms]
[OGL LOG][Proc: 0]p_local_coeffs: call_update: 0 [ms]
[OGL LOG][Proc: 0]p_non_local_coeffs: call_update: 0 [ms]
[OGL LOG][Proc: 0]p: update_local_matrix_data: 71.80500000000001 [ms]
[OGL LOG][Proc: 0]p: update_non_local_matrix_data: 0.337 [ms]
[OGL LOG][Proc: 0]p_matrix: call_update: 3.204 [ms]
[OGL LOG][Proc: 0]p_rhs: call_update: 2.066 [ms]
[OGL LOG][Preconditioner.H:121] Generate preconditioner BJ MaxBlockSize 1
[OGL LOG][Proc: 0]p: init_precond: 1.838 [ms]
[OGL LOG][StoppingCriterion.H:239] Creating stopping criterion with minIter 480 frequency 12
[OGL LOG][Proc: 0]p: generate_solver: 0.019 [ms]
[OGL LOG][Proc: 0]p: solve: 1539.371 [ms]
[OGL LOG][Proc: 0]p: copy_x_back: 4.874 [ms]
[OGL LOG][lduLduBase.H:330] 
Statistics:
	Time per iteration: 3200 [mu s]
	Time per residual norm calculation: 1280.000000 [mu s]
	Time per iteration and DOF: 0.253681 [ns]
	Retrieve results bandwidth 2.591000 [GByte/s]
[OGL LOG][Proc: 0]p: solve_multi_gpu: 1552.441 [ms]
BJcudaGKOCG:  Solving for p, Initial residual = 0.2520806141695379, Final residual = 0.001387749588933059, No Iterations 481
time step continuity errors : sum local = 0.001077379538783976, global = -0.000173157368717869, cumulative = 0.009820080355952209
smoothSolver:  Solving for nuTilda, Initial residual = 0.01490285957375913, Final residual = 0.0009677561644279102, No Iterations 4
ExecutionTime = 363.46 s  ClockTime = 365 s

Time = 31

velocityDampingConstraint velocityDamping damped 0 (0%) of cells, with max limit 300
smoothSolver:  Solving for Ux, Initial residual = 0.006394616712810097, Final residual = 0.000568416941402435, No Iterations 4
smoothSolver:  Solving for Uy, Initial residual = 0.01785814204904914, Final residual = 0.001638770405604156, No Iterations 4
smoothSolver:  Solving for Uz, Initial residual = 0.01805213857047098, Final residual = 0.00158602072267668, No Iterations 4
[OGL LOG][Proc: 0]: global_index_init: 0.018 [ms]
[OGL LOG][Proc: 0]p_local_coeffs: call_update: 0 [ms]
[OGL LOG][Proc: 0]p_non_local_coeffs: call_update: 0 [ms]
[OGL LOG][Proc: 0]p: update_local_matrix_data: 70.355 [ms]
[OGL LOG][Proc: 0]p: update_non_local_matrix_data: 0.333 [ms]
[OGL LOG][Proc: 0]p_matrix: call_update: 2.965 [ms]
[OGL LOG][Proc: 0]p_rhs: call_update: 3.781 [ms]
[OGL LOG][Preconditioner.H:121] Generate preconditioner BJ MaxBlockSize 1
[OGL LOG][Proc: 0]p: init_precond: 2.041 [ms]
[OGL LOG][StoppingCriterion.H:239] Creating stopping criterion with minIter 288 frequency 9
[OGL LOG][Proc: 0]p: generate_solver: 0.014 [ms]
[OGL LOG][Proc: 0]p: solve: 1103.437 [ms]
[OGL LOG][Proc: 0]p: copy_x_back: 4.842 [ms]
[OGL LOG][lduLduBase.H:330] 
Statistics:
	Time per iteration: 3303 [mu s]
	Time per residual norm calculation: 1278.000000 [mu s]
	Time per iteration and DOF: 0.261846 [ns]
	Retrieve results bandwidth 2.608000 [GByte/s]
[OGL LOG][Proc: 0]p: solve_multi_gpu: 1120.65 [ms]
BJcudaGKOCG:  Solving for p, Initial residual = 0.2401315494878042, Final residual = 0.002395701151236652, No Iterations 334
time step continuity errors : sum local = 0.001773669951679677, global = 0.0002922205917017854, cumulative = 0.01011230094765399
smoothSolver:  Solving for nuTilda, Initial residual = 0.02668119420705398, Final residual = 0.001547635719508645, No Iterations 3
ExecutionTime = 371.72 s  ClockTime = 374 s

Time = 32

velocityDampingConstraint velocityDamping damped 0 (0%) of cells, with max limit 300
smoothSolver:  Solving for Ux, Initial residual = 0.00641130757231226, Final residual = 0.0005607125235520243, No Iterations 4
smoothSolver:  Solving for Uy, Initial residual = 0.01687528844154984, Final residual = 0.001553057109789476, No Iterations 4
smoothSolver:  Solving for Uz, Initial residual = 0.0171573793347478, Final residual = 0.001523489213187433, No Iterations 4
[OGL LOG][Proc: 0]: global_index_init: 0.283 [ms]
[OGL LOG][Proc: 0]p_local_coeffs: call_update: 0 [ms]
[OGL LOG][Proc: 0]p_non_local_coeffs: call_update: 0 [ms]
[OGL LOG][Proc: 0]p: update_local_matrix_data: 71.80500000000001 [ms]
[OGL LOG][Proc: 0]p: update_non_local_matrix_data: 0.366 [ms]
[OGL LOG][Proc: 0]p_matrix: call_update: 3.4 [ms]
[OGL LOG][Proc: 0]p_rhs: call_update: 1.653 [ms]
[OGL LOG][Preconditioner.H:121] Generate preconditioner BJ MaxBlockSize 1
[OGL LOG][Proc: 0]p: init_precond: 2.02 [ms]
[OGL LOG][StoppingCriterion.H:239] Creating stopping criterion with minIter 200 frequency 8
[OGL LOG][Proc: 0]p: generate_solver: 0.015 [ms]
[OGL LOG][Proc: 0]p: solve: 2501.522 [ms]
[OGL LOG][Proc: 0]p: copy_x_back: 4.851 [ms]
[OGL LOG][lduLduBase.H:330] 
Statistics:
	Time per iteration: 3219 [mu s]
	Time per residual norm calculation: 1277.000000 [mu s]
	Time per iteration and DOF: 0.255187 [ns]
	Retrieve results bandwidth 2.603000 [GByte/s]
[OGL LOG][Proc: 0]p: solve_multi_gpu: 2515.353 [ms]
BJcudaGKOCG:  Solving for p, Initial residual = 0.2326307096542795, Final residual = 0.002156576152525097, No Iterations 777
time step continuity errors : sum local = 0.001514489743282195, global = 7.061158542487735e-05, cumulative = 0.01018291253307887
smoothSolver:  Solving for nuTilda, Initial residual = 0.01392650782301518, Final residual = 0.0009286095329447345, No Iterations 4
ExecutionTime = 381.37 s  ClockTime = 383 s

Time = 33

velocityDampingConstraint velocityDamping damped 0 (0%) of cells, with max limit 300
smoothSolver:  Solving for Ux, Initial residual = 0.005846182356370337, Final residual = 0.0005126363941961666, No Iterations 4
smoothSolver:  Solving for Uy, Initial residual = 0.0162901901551923, Final residual = 0.001494142442952749, No Iterations 4
smoothSolver:  Solving for Uz, Initial residual = 0.01639772475088374, Final residual = 0.001473178755752149, No Iterations 4
[OGL LOG][Proc: 0]: global_index_init: 0.016 [ms]
[OGL LOG][Proc: 0]p_local_coeffs: call_update: 0 [ms]
[OGL LOG][Proc: 0]p_non_local_coeffs: call_update: 0 [ms]
[OGL LOG][Proc: 0]p: update_local_matrix_data: 68.10899999999999 [ms]
[OGL LOG][Proc: 0]p: update_non_local_matrix_data: 0.366 [ms]
[OGL LOG][Proc: 0]p_matrix: call_update: 3.132 [ms]
[OGL LOG][Proc: 0]p_rhs: call_update: 4.055 [ms]
[OGL LOG][Preconditioner.H:121] Generate preconditioner BJ MaxBlockSize 1
[OGL LOG][Proc: 0]p: init_precond: 2.083 [ms]
[OGL LOG][StoppingCriterion.H:239] Creating stopping criterion with minIter 466 frequency 12
[OGL LOG][Proc: 0]p: generate_solver: 0.014 [ms]
[OGL LOG][Proc: 0]p: solve: 1506.41 [ms]
[OGL LOG][Proc: 0]p: copy_x_back: 4.958 [ms]
[OGL LOG][lduLduBase.H:330] 
Statistics:
	Time per iteration: 3211 [mu s]
	Time per residual norm calculation: 1428.000000 [mu s]
	Time per iteration and DOF: 0.254553 [ns]
	Retrieve results bandwidth 2.547000 [GByte/s]
[OGL LOG][Proc: 0]p: solve_multi_gpu: 1526.607 [ms]
BJcudaGKOCG:  Solving for p, Initial residual = 0.1464530430614717, Final residual = 0.0005228472777022203, No Iterations 469
time step continuity errors : sum local = 0.0005348086810323816, global = 0.0001035682873683763, cumulative = 0.01028648082044725
smoothSolver:  Solving for nuTilda, Initial residual = 0.02499578286776688, Final residual = 0.001489700208870375, No Iterations 3
ExecutionTime = 389.98 s  ClockTime = 392 s

Time = 34

velocityDampingConstraint velocityDamping damped 0 (0%) of cells, with max limit 300
smoothSolver:  Solving for Ux, Initial residual = 0.005525291655036507, Final residual = 0.0004873075716476351, No Iterations 4
smoothSolver:  Solving for Uy, Initial residual = 0.01622927519689809, Final residual = 0.001486965638623806, No Iterations 4
smoothSolver:  Solving for Uz, Initial residual = 0.01632215032233501, Final residual = 0.001479478782172377, No Iterations 4
[OGL LOG][Proc: 0]: global_index_init: 0.017 [ms]
[OGL LOG][Proc: 0]p_local_coeffs: call_update: 0 [ms]
[OGL LOG][Proc: 0]p_non_local_coeffs: call_update: 0 [ms]
[OGL LOG][Proc: 0]p: update_local_matrix_data: 70.321 [ms]
[OGL LOG][Proc: 0]p: update_non_local_matrix_data: 0.337 [ms]
[OGL LOG][Proc: 0]p_matrix: call_update: 2.013 [ms]
[OGL LOG][Proc: 0]p_rhs: call_update: 2.754 [ms]
[OGL LOG][Preconditioner.H:121] Generate preconditioner BJ MaxBlockSize 1
[OGL LOG][Proc: 0]p: init_precond: 2.002 [ms]
[OGL LOG][StoppingCriterion.H:239] Creating stopping criterion with minIter 281 frequency 9
[OGL LOG][Proc: 0]p: generate_solver: 0.014 [ms]
[OGL LOG][Proc: 0]p: solve: 2108.984 [ms]
[OGL LOG][Proc: 0]p: copy_x_back: 5.08 [ms]
[OGL LOG][lduLduBase.H:330] 
Statistics:
	Time per iteration: 3205 [mu s]
	Time per residual norm calculation: 1422.000000 [mu s]
	Time per iteration and DOF: 0.254077 [ns]
	Retrieve results bandwidth 2.486000 [GByte/s]
[OGL LOG][Proc: 0]p: solve_multi_gpu: 2123.165 [ms]
BJcudaGKOCG:  Solving for p, Initial residual = 0.1379583799118239, Final residual = 0.001357267961504853, No Iterations 658
time step continuity errors : sum local = 0.00136751743397071, global = -0.0001248868289227635, cumulative = 0.01016159399152448
smoothSolver:  Solving for nuTilda, Initial residual = 0.01307934254971816, Final residual = 0.0008906232334349016, No Iterations 4
ExecutionTime = 399.33 s  ClockTime = 401 s

Time = 35

velocityDampingConstraint velocityDamping damped 0 (0%) of cells, with max limit 300
smoothSolver:  Solving for Ux, Initial residual = 0.005445902979535245, Final residual = 0.0004795687155805103, No Iterations 4
smoothSolver:  Solving for Uy, Initial residual = 0.01613573176977321, Final residual = 0.001492309760296494, No Iterations 4
smoothSolver:  Solving for Uz, Initial residual = 0.01632884488871682, Final residual = 0.001486617702126071, No Iterations 4
[OGL LOG][Proc: 0]: global_index_init: 0.017 [ms]
[OGL LOG][Proc: 0]p_local_coeffs: call_update: 0 [ms]
[OGL LOG][Proc: 0]p_non_local_coeffs: call_update: 0 [ms]
[OGL LOG][Proc: 0]p: update_local_matrix_data: 66.622 [ms]
[OGL LOG][Proc: 0]p: update_non_local_matrix_data: 0.357 [ms]
[OGL LOG][Proc: 0]p_matrix: call_update: 2.955 [ms]
[OGL LOG][Proc: 0]p_rhs: call_update: 2.203 [ms]
[OGL LOG][Preconditioner.H:121] Generate preconditioner BJ MaxBlockSize 1
[OGL LOG][Proc: 0]p: init_precond: 1.804 [ms]
[OGL LOG][StoppingCriterion.H:239] Creating stopping criterion with minIter 394 frequency 11
[OGL LOG][Proc: 0]p: generate_solver: 0.019 [ms]
[OGL LOG][Proc: 0]p: solve: 2166.721 [ms]
[OGL LOG][Proc: 0]p: copy_x_back: 5.071 [ms]
[OGL LOG][lduLduBase.H:330] 
Statistics:
	Time per iteration: 3172 [mu s]
	Time per residual norm calculation: 1124.000000 [mu s]
	Time per iteration and DOF: 0.251461 [ns]
	Retrieve results bandwidth 2.490000 [GByte/s]
[...]
[OGL LOG][lduLduBase.H:330] 
Statistics:
	Time per iteration: 3281 [mu s]
	Time per residual norm calculation: 1278.000000 [mu s]
	Time per iteration and DOF: 0.260102 [ns]
	Retrieve results bandwidth 2.568000 [GByte/s]
[OGL LOG][Proc: 0]p: solve_multi_gpu: 1727.932 [ms]
BJcudaGKOCG:  Solving for p, Initial residual = 0.04304589318076991, Final residual = 0.0004104670555896876, No Iterations 521
time step continuity errors : sum local = 0.0003092473380486793, global = -2.487886913328367e-06, cumulative = 0.01010823444086521
smoothSolver:  Solving for nuTilda, Initial residual = 0.006331941144379421, Final residual = 0.0004606413193352201, No Iterations 4
ExecutionTime = 871.53 s  ClockTime = 874 s

Time = 91

velocityDampingConstraint velocityDamping damped 0 (0%) of cells, with max limit 300
smoothSolver:  Solving for Ux, Initial residual = 0.002772048885388015, Final residual = 0.0002680981999192489, No Iterations 4
smoothSolver:  Solving for Uy, Initial residual = 0.01184034227531077, Final residual = 0.001139268540384555, No Iterations 4
smoothSolver:  Solving for Uz, Initial residual = 0.01299789110067927, Final residual = 0.001271235769227348, No Iterations 4
[OGL LOG][Proc: 0]: global_index_init: 0.016 [ms]
[OGL LOG][Proc: 0]p_local_coeffs: call_update: 0 [ms]
[OGL LOG][Proc: 0]p_non_local_coeffs: call_update: 0 [ms]
[OGL LOG][Proc: 0]p: update_local_matrix_data: 67.428 [ms]
[OGL LOG][Proc: 0]p: update_non_local_matrix_data: 0.362 [ms]
[OGL LOG][Proc: 0]p_matrix: call_update: 2.113 [ms]
[OGL LOG][Proc: 0]p_rhs: call_update: 2.776 [ms]
[OGL LOG][Preconditioner.H:121] Generate preconditioner BJ MaxBlockSize 1
[OGL LOG][Proc: 0]p: init_precond: 1.908 [ms]
[OGL LOG][StoppingCriterion.H:239] Creating stopping criterion with minIter 312 frequency 10
[OGL LOG][Proc: 0]p: generate_solver: 0.014 [ms]
[OGL LOG][Proc: 0]p: solve: 1895.548 [ms]
[OGL LOG][Proc: 0]p: copy_x_back: 5.09 [ms]
[OGL LOG][lduLduBase.H:330] 
Statistics:
	Time per iteration: 3207 [mu s]
	Time per residual norm calculation: 1276.000000 [mu s]
	Time per iteration and DOF: 0.254236 [ns]
	Retrieve results bandwidth 2.481000 [GByte/s]
[OGL LOG][Proc: 0]p: solve_multi_gpu: 1912.843 [ms]
BJcudaGKOCG:  Solving for p, Initial residual = 0.04343753624226356, Final residual = 0.0004117641563959282, No Iterations 591
time step continuity errors : sum local = 0.0003005108588970928, global = -1.083253764882792e-06, cumulative = 0.01010715118710032
smoothSolver:  Solving for nuTilda, Initial residual = 0.009329482074037207, Final residual = 0.0008025599135429983, No Iterations 3
ExecutionTime = 880.45 s  ClockTime = 883 s

Time = 92

velocityDampingConstraint velocityDamping damped 0 (0%) of cells, with max limit 300
smoothSolver:  Solving for Ux, Initial residual = 0.002736875083060406, Final residual = 0.0002663757804468642, No Iterations 4
smoothSolver:  Solving for Uy, Initial residual = 0.01186121876030841, Final residual = 0.001143047026751281, No Iterations 4
smoothSolver:  Solving for Uz, Initial residual = 0.01300210438058914, Final residual = 0.001271188066412632, No Iterations 4
[OGL LOG][Proc: 0]: global_index_init: 0.06900000000000001 [ms]
[OGL LOG][Proc: 0]p_local_coeffs: call_update: 0 [ms]
[OGL LOG][Proc: 0]p_non_local_coeffs: call_update: 0 [ms]
[OGL LOG][Proc: 0]p: update_local_matrix_data: 72.64700000000001 [ms]
[OGL LOG][Proc: 0]p: update_non_local_matrix_data: 0.374 [ms]
[OGL LOG][Proc: 0]p_matrix: call_update: 3.147 [ms]
[OGL LOG][Proc: 0]p_rhs: call_update: 1.989 [ms]
[OGL LOG][Preconditioner.H:121] Generate preconditioner BJ MaxBlockSize 1
[OGL LOG][Proc: 0]p: init_precond: 1.784 [ms]
[OGL LOG][StoppingCriterion.H:239] Creating stopping criterion with minIter 354 frequency 10
[OGL LOG][Proc: 0]p: generate_solver: 0.014 [ms]
[OGL LOG][Proc: 0]p: solve: 1167.906 [ms]
[OGL LOG][Proc: 0]p: copy_x_back: 5.076 [ms]
[OGL LOG][lduLduBase.H:330] 
Statistics:
	Time per iteration: 3235 [mu s]
	Time per residual norm calculation: 1274.000000 [mu s]
	Time per iteration and DOF: 0.256456 [ns]
	Retrieve results bandwidth 2.488000 [GByte/s]
[OGL LOG][Proc: 0]p: solve_multi_gpu: 1182.311 [ms]
BJcudaGKOCG:  Solving for p, Initial residual = 0.04371929191880213, Final residual = 7.970746817751737e-05, No Iterations 361
time step continuity errors : sum local = 5.682213858064525e-05, global = -4.689394562252119e-06, cumulative = 0.01010246179253807
smoothSolver:  Solving for nuTilda, Initial residual = 0.006241869658285384, Final residual = 0.0004547553286312093, No Iterations 4
ExecutionTime = 888.6900000000001 s  ClockTime = 892 s

Time = 93

velocityDampingConstraint velocityDamping damped 0 (0%) of cells, with max limit 300
smoothSolver:  Solving for Ux, Initial residual = 0.002746760412810696, Final residual = 0.0002656623105919653, No Iterations 4
smoothSolver:  Solving for Uy, Initial residual = 0.01187438621305683, Final residual = 0.001146754739375276, No Iterations 4
smoothSolver:  Solving for Uz, Initial residual = 0.01298974207974214, Final residual = 0.001270010982398603, No Iterations 4
[OGL LOG][Proc: 0]: global_index_init: 0.017 [ms]
[OGL LOG][Proc: 0]p_local_coeffs: call_update: 0 [ms]
[OGL LOG][Proc: 0]p_non_local_coeffs: call_update: 0 [ms]
[OGL LOG][Proc: 0]p: update_local_matrix_data: 66.999 [ms]
[OGL LOG][Proc: 0]p: update_non_local_matrix_data: 0.312 [ms]
[OGL LOG][Proc: 0]p_matrix: call_update: 3.009 [ms]
[OGL LOG][Proc: 0]p_rhs: call_update: 2.009 [ms]
[OGL LOG][Preconditioner.H:121] Generate preconditioner BJ MaxBlockSize 1
[OGL LOG][Proc: 0]p: init_precond: 1.923 [ms]
[OGL LOG][StoppingCriterion.H:239] Creating stopping criterion with minIter 216 frequency 8
[OGL LOG][Proc: 0]p: generate_solver: 0.013 [ms]
[OGL LOG][Proc: 0]p: solve: 748.627 [ms]
[OGL LOG][Proc: 0]p: copy_x_back: 4.906 [ms]
[OGL LOG][lduLduBase.H:330] 
Statistics:
	Time per iteration: 3449 [mu s]
	Time per residual norm calculation: 1130.000000 [mu s]
	Time per iteration and DOF: 0.273420 [ns]
	Retrieve results bandwidth 2.574000 [GByte/s]
[OGL LOG][Proc: 0]p: solve_multi_gpu: 765.8579999999999 [ms]
BJcudaGKOCG:  Solving for p, Initial residual = 0.0428329279481201, Final residual = 0.0003297911243905666, No Iterations 217
time step continuity errors : sum local = 0.0002344283771672606, global = 5.533214538637142e-05, cumulative = 0.01015779393792444
smoothSolver:  Solving for nuTilda, Initial residual = 0.009097390305046022, Final residual = 0.000794547285518584, No Iterations 3
ExecutionTime = 896.51 s  ClockTime = 900 s

Time = 94

velocityDampingConstraint velocityDamping damped 0 (0%) of cells, with max limit 300
smoothSolver:  Solving for Ux, Initial residual = 0.002716350758535311, Final residual = 0.0002639838284846196, No Iterations 4
smoothSolver:  Solving for Uy, Initial residual = 0.01188732233113889, Final residual = 0.001151380689507702, No Iterations 4
smoothSolver:  Solving for Uz, Initial residual = 0.01297427447955119, Final residual = 0.001269213585820708, No Iterations 4
[OGL LOG][Proc: 0]: global_index_init: 0.049 [ms]
[OGL LOG][Proc: 0]p_local_coeffs: call_update: 0 [ms]
[OGL LOG][Proc: 0]p_non_local_coeffs: call_update: 0 [ms]
[OGL LOG][Proc: 0]p: update_local_matrix_data: 69.261 [ms]
[OGL LOG][Proc: 0]p: update_non_local_matrix_data: 0.351 [ms]
[OGL LOG][Proc: 0]p_matrix: call_update: 2.134 [ms]
[OGL LOG][Proc: 0]p_rhs: call_update: 5.246 [ms]
[OGL LOG][Preconditioner.H:121] Generate preconditioner BJ MaxBlockSize 1
[OGL LOG][Proc: 0]p: init_precond: 2.101 [ms]
[OGL LOG][StoppingCriterion.H:239] Creating stopping criterion with minIter 130 frequency 5
[OGL LOG][Proc: 0]p: generate_solver: 0.018 [ms]
[OGL LOG][Proc: 0]p: solve: 2432.084 [ms]
[OGL LOG][Proc: 0]p: copy_x_back: 5.006 [ms]
[OGL LOG][lduLduBase.H:330] 
Statistics:
	Time per iteration: 3679 [mu s]
	Time per residual norm calculation: 1277.000000 [mu s]
	Time per iteration and DOF: 0.291654 [ns]
	Retrieve results bandwidth 2.522000 [GByte/s]
[OGL LOG][Proc: 0]p: solve_multi_gpu: 2449.558 [ms]
BJcudaGKOCG:  Solving for p, Initial residual = 0.0420961479331278, Final residual = 0.000404301287307581, No Iterations 661
time step continuity errors : sum local = 0.0002872349177627754, global = -4.568147347086545e-06, cumulative = 0.01015322579057736
smoothSolver:  Solving for nuTilda, Initial residual = 0.006152734324083338, Final residual = 0.0004502156403837833, No Iterations 4
ExecutionTime = 906.09 s  ClockTime = 909 s

Time = 95

velocityDampingConstraint velocityDamping damped 0 (0%) of cells, with max limit 300
smoothSolver:  Solving for Ux, Initial residual = 0.002703044103577315, Final residual = 0.0002618287501169894, No Iterations 4
smoothSolver:  Solving for Uy, Initial residual = 0.01189186220679476, Final residual = 0.001155798731427748, No Iterations 4
smoothSolver:  Solving for Uz, Initial residual = 0.01291093517549822, Final residual = 0.001265417528816321, No Iterations 4
[OGL LOG][Proc: 0]: global_index_init: 0.022 [ms]
[OGL LOG][Proc: 0]p_local_coeffs: call_update: 0 [ms]
[OGL LOG][Proc: 0]p_non_local_coeffs: call_update: 0 [ms]
[OGL LOG][Proc: 0]p: update_local_matrix_data: 61.024 [ms]
[OGL LOG][Proc: 0]p: update_non_local_matrix_data: 0.324 [ms]
[OGL LOG][Proc: 0]p_matrix: call_update: 2.944 [ms]
[OGL LOG][Proc: 0]p_rhs: call_update: 2.086 [ms]
[OGL LOG][Preconditioner.H:121] Generate preconditioner BJ MaxBlockSize 1
[OGL LOG][Proc: 0]p: init_precond: 2.1 [ms]
[OGL LOG][StoppingCriterion.H:239] Creating stopping criterion with minIter 396 frequency 11
[OGL LOG][Proc: 0]p: generate_solver: 0.015 [ms]
[OGL LOG][Proc: 0]p: solve: 1291.189 [ms]
[OGL LOG][Proc: 0]p: copy_x_back: 4.833 [ms]
[OGL LOG][lduLduBase.H:330] 
Statistics:
	Time per iteration: 3252 [mu s]
	Time per residual norm calculation: 1132.000000 [mu s]
	Time per iteration and DOF: 0.257803 [ns]
	Retrieve results bandwidth 2.613000 [GByte/s]
[OGL LOG][Proc: 0]p: solve_multi_gpu: 1318.417 [ms]
BJcudaGKOCG:  Solving for p, Initial residual = 0.03915072413459985, Final residual = 0.0001057605109193197, No Iterations 397
time step continuity errors : sum local = 7.932045142344995e-05, global = -3.603357395606779e-06, cumulative = 0.01014962243318175
smoothSolver:  Solving for nuTilda, Initial residual = 0.008876116059969208, Final residual = 0.0007885372759292366, No Iterations 3
ExecutionTime = 914.46 s  ClockTime = 918 s

Time = 96

velocityDampingConstraint velocityDamping damped 0 (0%) of cells, with max limit 300
smoothSolver:  Solving for Ux, Initial residual = 0.002659320137556672, Final residual = 0.0002592822193621503, No Iterations 4
smoothSolver:  Solving for Uy, Initial residual = 0.01190202074012483, Final residual = 0.00116052894688482, No Iterations 4
smoothSolver:  Solving for Uz, Initial residual = 0.01286328542106976, Final residual = 0.001262782685659269, No Iterations 4
[OGL LOG][Proc: 0]: global_index_init: 0.238 [ms]
[OGL LOG][Proc: 0]p_local_coeffs: call_update: 0 [ms]
[OGL LOG][Proc: 0]p_non_local_coeffs: call_update: 0 [ms]
[OGL LOG][Proc: 0]p: update_local_matrix_data: 72.139 [ms]
[OGL LOG][Proc: 0]p: update_non_local_matrix_data: 0.325 [ms]
[OGL LOG][Proc: 0]p_matrix: call_update: 2.996 [ms]
[OGL LOG][Proc: 0]p_rhs: call_update: 2.192 [ms]
[OGL LOG][Preconditioner.H:121] Generate preconditioner BJ MaxBlockSize 1
[OGL LOG][Proc: 0]p: init_precond: 1.873 [ms]
[OGL LOG][StoppingCriterion.H:239] Creating stopping criterion with minIter 238 frequency 8
[OGL LOG][Proc: 0]p: generate_solver: 0.014 [ms]
[OGL LOG][Proc: 0]p: solve: 1968.544 [ms]
[OGL LOG][Proc: 0]p: copy_x_back: 5.05 [ms]
[OGL LOG][lduLduBase.H:330] 
Statistics:
	Time per iteration: 3275 [mu s]
	Time per residual norm calculation: 1278.000000 [mu s]
	Time per iteration and DOF: 0.259627 [ns]
	Retrieve results bandwidth 2.500000 [GByte/s]
[OGL LOG][Proc: 0]p: solve_multi_gpu: 1982.822 [ms]
BJcudaGKOCG:  Solving for p, Initial residual = 0.03877236139495987, Final residual = 0.0003793594739043233, No Iterations 601
time step continuity errors : sum local = 0.0002827042149240477, global = 8.918483766601331e-07, cumulative = 0.01015051428155841
smoothSolver:  Solving for nuTilda, Initial residual = 0.006065053666930254, Final residual = 0.0004466108809144273, No Iterations 4
ExecutionTime = 923.5599999999999 s  ClockTime = 927 s

Time = 97

velocityDampingConstraint velocityDamping damped 0 (0%) of cells, with max limit 300
smoothSolver:  Solving for Ux, Initial residual = 0.002661126983154526, Final residual = 0.0002585785260446887, No Iterations 4
smoothSolver:  Solving for Uy, Initial residual = 0.01191390748469855, Final residual = 0.001164559344796093, No Iterations 4
smoothSolver:  Solving for Uz, Initial residual = 0.0128251057557933, Final residual = 0.00126056802373597, No Iterations 4
[OGL LOG][Proc: 0]: global_index_init: 0.016 [ms]
[OGL LOG][Proc: 0]p_local_coeffs: call_update: 0 [ms]
[OGL LOG][Proc: 0]p_non_local_coeffs: call_update: 0 [ms]
[OGL LOG][Proc: 0]p: update_local_matrix_data: 68.873 [ms]
[OGL LOG][Proc: 0]p: update_non_local_matrix_data: 0.359 [ms]
[OGL LOG][Proc: 0]p_matrix: call_update: 3.077 [ms]
[OGL LOG][Proc: 0]p_rhs: call_update: 4.805 [ms]
[OGL LOG][Preconditioner.H:121] Generate preconditioner BJ MaxBlockSize 1
[OGL LOG][Proc: 0]p: init_precond: 1.035 [ms]
[OGL LOG][StoppingCriterion.H:239] Creating stopping criterion with minIter 360 frequency 10
[OGL LOG][Proc: 0]p: generate_solver: 0.014 [ms]
[OGL LOG][Proc: 0]p: solve: 1170.851 [ms]
[OGL LOG][Proc: 0]p: copy_x_back: 4.637 [ms]
[OGL LOG][lduLduBase.H:330] 
Statistics:
	Time per iteration: 3243 [mu s]
	Time per residual norm calculation: 1277.000000 [mu s]
	Time per iteration and DOF: 0.257090 [ns]
	Retrieve results bandwidth 2.723000 [GByte/s]
[OGL LOG][Proc: 0]p: solve_multi_gpu: 1188.146 [ms]
BJcudaGKOCG:  Solving for p, Initial residual = 0.03966476102707666, Final residual = 0.0003774886731418737, No Iterations 361
time step continuity errors : sum local = 0.0002694429529964188, global = -3.307034898491669e-05, cumulative = 0.01011744393257349
smoothSolver:  Solving for nuTilda, Initial residual = 0.008664205120671309, Final residual = 0.0007832040383052551, No Iterations 3
ExecutionTime = 931.71 s  ClockTime = 935 s

Time = 98

velocityDampingConstraint velocityDamping damped 0 (0%) of cells, with max limit 300
smoothSolver:  Solving for Ux, Initial residual = 0.002630141150828772, Final residual = 0.0002572355771693133, No Iterations 4
smoothSolver:  Solving for Uy, Initial residual = 0.01192955939535239, Final residual = 0.001168551299485516, No Iterations 4
smoothSolver:  Solving for Uz, Initial residual = 0.0127831749912048, Final residual = 0.001258579775593722, No Iterations 4
[OGL LOG][Proc: 0]: global_index_init: 0.015 [ms]
[OGL LOG][Proc: 0]p_local_coeffs: call_update: 0 [ms]
[OGL LOG][Proc: 0]p_non_local_coeffs: call_update: 0 [ms]
[OGL LOG][Proc: 0]p: update_local_matrix_data: 62.119 [ms]
[OGL LOG][Proc: 0]p: update_non_local_matrix_data: 0.366 [ms]
[OGL LOG][Proc: 0]p_matrix: call_update: 2.439 [ms]
[OGL LOG][Proc: 0]p_rhs: call_update: 2.462 [ms]
[OGL LOG][Preconditioner.H:121] Generate preconditioner BJ MaxBlockSize 1
[OGL LOG][Proc: 0]p: init_precond: 1.881 [ms]
[OGL LOG][StoppingCriterion.H:239] Creating stopping criterion with minIter 216 frequency 8
[OGL LOG][Proc: 0]p: generate_solver: 0.014 [ms]
[OGL LOG][Proc: 0]p: solve: 739.73 [ms]
[OGL LOG][Proc: 0]p: copy_x_back: 4.933 [ms]
[OGL LOG][lduLduBase.H:330] 
Statistics:
	Time per iteration: 3408 [mu s]
	Time per residual norm calculation: 1280.000000 [mu s]
	Time per iteration and DOF: 0.270170 [ns]
	Retrieve results bandwidth 2.560000 [GByte/s]
[OGL LOG][Proc: 0]p: solve_multi_gpu: 763.128 [ms]
BJcudaGKOCG:  Solving for p, Initial residual = 0.03908218620107694, Final residual = 0.0003161484583353211, No Iterations 217
time step continuity errors : sum local = 0.00022542878034193, global = -3.858849644354799e-05, cumulative = 0.01007885543612995
smoothSolver:  Solving for nuTilda, Initial residual = 0.00597751451715741, Final residual = 0.0004429491129851467, No Iterations 4
ExecutionTime = 939.58 s  ClockTime = 943 s

Time = 99

velocityDampingConstraint velocityDamping damped 0 (0%) of cells, with max limit 300
smoothSolver:  Solving for Ux, Initial residual = 0.002640294755466218, Final residual = 0.0002567933603059072, No Iterations 4
smoothSolver:  Solving for Uy, Initial residual = 0.01194134426578017, Final residual = 0.001171546305888894, No Iterations 4
smoothSolver:  Solving for Uz, Initial residual = 0.01273822269638293, Final residual = 0.001256182611406414, No Iterations 4
[OGL LOG][Proc: 0]: global_index_init: 0.094 [ms]
[OGL LOG][Proc: 0]p_local_coeffs: call_update: 0 [ms]
[OGL LOG][Proc: 0]p_non_local_coeffs: call_update: 0 [ms]
[OGL LOG][Proc: 0]p: update_local_matrix_data: 62.775 [ms]
[OGL LOG][Proc: 0]p: update_non_local_matrix_data: 0.353 [ms]
[OGL LOG][Proc: 0]p_matrix: call_update: 2.875 [ms]
[OGL LOG][Proc: 0]p_rhs: call_update: 2.166 [ms]
[OGL LOG][Preconditioner.H:121] Generate preconditioner BJ MaxBlockSize 1
[OGL LOG][Proc: 0]p: init_precond: 2.076 [ms]
[OGL LOG][StoppingCriterion.H:239] Creating stopping criterion with minIter 130 frequency 6
[OGL LOG][Proc: 0]p: generate_solver: 0.015 [ms]
[OGL LOG][Proc: 0]p: solve: 563.485 [ms]
[OGL LOG][Proc: 0]p: copy_x_back: 4.955 [ms]
[OGL LOG][lduLduBase.H:330] 
Statistics:
	Time per iteration: 3731 [mu s]
	Time per residual norm calculation: 1422.000000 [mu s]
	Time per iteration and DOF: 0.295776 [ns]
	Retrieve results bandwidth 2.548000 [GByte/s]
[OGL LOG][Proc: 0]p: solve_multi_gpu: 586.3049999999999 [ms]
BJcudaGKOCG:  Solving for p, Initial residual = 0.03849236332430508, Final residual = 0.0003826960107009227, No Iterations 151
time step continuity errors : sum local = 0.0002718136359533309, global = -7.74190360218261e-06, cumulative = 0.01007111353252776
smoothSolver:  Solving for nuTilda, Initial residual = 0.008461339255618146, Final residual = 0.0007777335460282844, No Iterations 3
ExecutionTime = 947.15 s  ClockTime = 950 s

Time = 100

velocityDampingConstraint velocityDamping damped 0 (0%) of cells, with max limit 300
smoothSolver:  Solving for Ux, Initial residual = 0.002614279749940924, Final residual = 0.0002555635157988307, No Iterations 4
smoothSolver:  Solving for Uy, Initial residual = 0.01196033495546407, Final residual = 0.001174904013635182, No Iterations 4
smoothSolver:  Solving for Uz, Initial residual = 0.01271019687317193, Final residual = 0.001255248439082956, No Iterations 4
[OGL LOG][Proc: 0]: global_index_init: 0.017 [ms]
[OGL LOG][Proc: 0]p_local_coeffs: call_update: 0 [ms]
[OGL LOG][Proc: 0]p_non_local_coeffs: call_update: 0 [ms]
[OGL LOG][Proc: 0]p: update_local_matrix_data: 69.23699999999999 [ms]
[OGL LOG][Proc: 0]p: update_non_local_matrix_data: 0.317 [ms]
[OGL LOG][Proc: 0]p_matrix: call_update: 2.697 [ms]
[OGL LOG][Proc: 0]p_rhs: call_update: 3.955 [ms]
[OGL LOG][Preconditioner.H:121] Generate preconditioner BJ MaxBlockSize 1
[OGL LOG][Proc: 0]p: init_precond: 1.982 [ms]
[OGL LOG][StoppingCriterion.H:239] Creating stopping criterion with minIter 90 frequency 5
[OGL LOG][Proc: 0]p: generate_solver: 0.025 [ms]
[OGL LOG][Proc: 0]p: solve: 915.5599999999999 [ms]
[OGL LOG][Proc: 0]p: copy_x_back: 4.909 [ms]
[OGL LOG][lduLduBase.H:330] 
Statistics:
	Time per iteration: 3576 [mu s]
	Time per residual norm calculation: 1272.000000 [mu s]
	Time per iteration and DOF: 0.283488 [ns]
	Retrieve results bandwidth 2.572000 [GByte/s]
[OGL LOG][Proc: 0]p: solve_multi_gpu: 933.577 [ms]
BJcudaGKOCG:  Solving for p, Initial residual = 0.03802001674927247, Final residual = 0.0003727909596118797, No Iterations 256
time step continuity errors : sum local = 0.0002640838478725187, global = 1.359764542852666e-05, cumulative = 0.01008471117795629
smoothSolver:  Solving for nuTilda, Initial residual = 0.005892994630461577, Final residual = 0.000439645987476463, No Iterations 4
ExecutionTime = 955.1799999999999 s  ClockTime = 958 s

End

Finalising parallel run
