/*---------------------------------------------------------------------------*\
| =========                 |                                                 |
| \\      /  F ield         | OpenFOAM: The Open Source CFD Toolbox           |
|  \\    /   O peration     | Version:  2306                                  |
|   \\  /    A nd           | Website:  www.openfoam.com                      |
|    \\/     M anipulation  |                                                 |
\*---------------------------------------------------------------------------*/
Build  : c423ebec-20231012 OPENFOAM=2306 version=v2306
Arch   : "LSB;label=32;scalar=64"
Exec   : icoFoam -parallel -case /hkfs/work/workspace/scratch/eq4036-l3d/workspace/d8c2c06bd94eab1ef186df067916ebae/case
Date   : Dec 30 2023
Time   : 09:52:42
Host   : hkn0806.localdomain
PID    : 421830
I/O    : uncollated
Case   : /hkfs/work/workspace/scratch/eq4036-l3d/workspace/d8c2c06bd94eab1ef186df067916ebae/case
nProcs : 16
Hosts  :
(
    (hkn0806.localdomain 16)
)
Pstream initialized with:
    floatTransfer      : false
    nProcsSimpleSum    : 0
    nonBlockingExchange: 0 (tuning: 0)
    exchange algorithm : -1
    commsType          : nonBlocking
    polling iterations : 0
trapFpe: Floating point exception trapping enabled (FOAM_SIGFPE).
fileModificationChecking : Monitoring run-time modified files using timeStampMaster (fileModificationSkew 5, maxFileModificationPolls 20)
allowSystemOperations : Allowing user-supplied system call operations

// * * * * * * * * * * * * * * * * * * * * * * * * * * * * * * * * * * * * * //
Create time

--> FOAM Warning : 
    From void* Foam::dlLibraryTable::openLibrary(const Foam::fileName&, bool)
    in file db/dynamicLibrary/dlLibraryTable/dlLibraryTable.C at line 188
    Could not load "libpetscFoam.so"
libpetscFoam.so: cannot open shared object file: No such file or directory
Create mesh for time = 0


PISO: Operating solver in PISO mode

Reading transportProperties

Reading field p

Reading field U

Reading/calculating face flux field phi


Starting time loop

Time = 0.0005

Courant Number mean: 8.62851e-18 max: 8.67362e-15
[INFO] MatrixAssemblyU: 17.184 [ms]
DILUPBiCGStab:  Solving for Ux, Initial residual = 1, Final residual = 0.00283431, No Iterations 5
DILUPBiCGStab:  Solving for Uy:  solution singularity
DILUPBiCGStab:  Solving for Uz:  solution singularity
[INFO] MomentumPredictor: 53.239 [ms]
[INFO] MatrixAssemblyPI: 13.007 [ms]
[INFO] AdjustPhi: 0.726 [ms]
[INFO] ConstrainPressure: 0.004 [ms]
[INFO] MatrixAssemblyPII: 4.018 [ms]
[OGL LOG][lduLduBase.H:119] Initialising OGL
	OGL commit:  a2fc0ff+
	Branch: feat/on_device_permute 
	Build type: Release
	Ginkgo version: 1.7.0 ( develop)
	Ginkgo commit: sparse-communicator
	MPI is GPU aware: 1
	Forces host buffer based communication: 0
	CPU ranks per GPU: 1
	Matrix format: Ell
	End OGL_INFO
[OGL LOG][Proc: 0]: global_index_init: 3.78 [ms]
[OGL LOG][Proc: 0]p_local_cols: call_init: 1.363 [ms]
[OGL LOG][Proc: 0]p_local_rows: call_init: 0.303 [ms]
[OGL LOG][Proc: 0]p_local_ldu_map: call_init: 0.147 [ms]
[OGL LOG][Proc: 0]p_local_coeffs: call_init: 5.833 [ms]
[OGL LOG][Proc: 0]p_non_local_cols: call_init: 0.007 [ms]
[OGL LOG][Proc: 0]p_non_local_rows: call_init: 0.044 [ms]
[OGL LOG][Proc: 0]p_non_local_ldu_map: call_init: 0.534 [ms]
[OGL LOG][Proc: 0]p_non_local_coeffs: call_init: 0.374 [ms]
[OGL LOG][Proc: 0]p: init_local_sparsity_pattern: 18.851 [ms]
[OGL LOG][Proc: 0]p: init_non_local_sparsity_pattern: 0.396 [ms]
[OGL LOG][Proc: 0]p: update_local_matrix_data: 63.904 [ms]
[OGL LOG][Proc: 0]p: update_non_local_matrix_data: 0.06 [ms]
[OGL LOG][Proc: 0]device_partition: call_init: 0.069 [ms]
[OGL LOG][Proc: 0]p_matrix: call_init: 11.849 [ms]
[OGL LOG][Proc: 0]p_rhs: call_init: 1.36 [ms]
[OGL LOG][Proc: 0]p_solution: call_init: 1.339 [ms]
[OGL LOG][Preconditioner.H:346] Generate preconditioner Multigrid MaxLevels 9 MinCoarseRows 10 ZeroGuess 1 Cycle v
[OGL LOG][Proc: 0]p: init_precond: 418.873 [ms]
[OGL LOG][StoppingCriterion.H:237] Creating stopping criterion with minIter 0 frequency 1
[OGL LOG][Proc: 0]p: generate_solver: 0 [ms]
[OGL LOG][Proc: 0]p: solve: 1898.53 [ms]
[OGL LOG][Proc: 0]p: copy_x_back: 0.289 [ms]
[OGL LOG][lduLduBase.H:330] 
Statistics:
	Time per iteration: 14274 [mu s]
	Time per residual norm calculation: 2620.000000 [mu s]
	Time per iteration and DOF: 14.274000 [ns]
	Retrieve results bandwidth 1.730000 [GByte/s]
[OGL LOG][Proc: 0]p: solve_multi_gpu: 2333.74 [ms]
MultigridcudaGKOCG:  Solving for p, Initial residual = 1, Final residual = 8.21658e-05, No Iterations 133
[INFO] SolveP: 5464.5 [ms]
time step continuity errors : sum local = 1.77527e-08, global = 8.87345e-22, cumulative = 8.87345e-22
[INFO] ContinuityError: 1.707 [ms]
[INFO] CorrectBoundary: 0.088 [ms]
[INFO] PISOStep: 5492.94 [ms]
[INFO] MatrixAssemblyPI: 14.415 [ms]
[INFO] AdjustPhi: 0.979 [ms]
[INFO] ConstrainPressure: 0.002 [ms]
[INFO] MatrixAssemblyPII: 4.617 [ms]
[OGL LOG][Proc: 0]: global_index_init: 0.018 [ms]
[OGL LOG][Proc: 0]p_local_coeffs: call_update: 0.001 [ms]
[OGL LOG][Proc: 0]p_non_local_coeffs: call_update: 0 [ms]
[OGL LOG][Proc: 0]p: update_local_matrix_data: 4.261 [ms]
[OGL LOG][Proc: 0]p: update_non_local_matrix_data: 0.056 [ms]
[OGL LOG][Proc: 0]p: regenerate_distributed_matrix: 14.087 [ms]
[OGL LOG][Proc: 0]p_matrix: call_update: 15.715 [ms]
[OGL LOG][Proc: 0]p_rhs: call_update: 0.344 [ms]
[OGL LOG][Preconditioner.H:346] Generate preconditioner Multigrid MaxLevels 9 MinCoarseRows 10 ZeroGuess 1 Cycle v
[OGL LOG][Proc: 0]p: init_precond: 312.215 [ms]
[OGL LOG][StoppingCriterion.H:237] Creating stopping criterion with minIter 79 frequency 3
[OGL LOG][Proc: 0]p: generate_solver: 0.001 [ms]
[OGL LOG][Proc: 0]p: solve: 1547.18 [ms]
[OGL LOG][Proc: 0]p: copy_x_back: 0.347 [ms]
[OGL LOG][lduLduBase.H:330] 
Statistics:
	Time per iteration: 11901 [mu s]
	Time per residual norm calculation: 2591.000000 [mu s]
	Time per iteration and DOF: 11.901000 [ns]
	Retrieve results bandwidth 1.440000 [GByte/s]
[OGL LOG][Proc: 0]p: solve_multi_gpu: 1888.47 [ms]
MultigridcudaGKOCG:  Solving for p, Initial residual = 0.731154, Final residual = 9.67197e-05, No Iterations 130
[INFO] SolveP: 1894.2 [ms]
time step continuity errors : sum local = 2.75406e-08, global = -2.6819e-21, cumulative = -1.79456e-21
[INFO] ContinuityError: 2.087 [ms]
[INFO] CorrectBoundary: 0.093 [ms]
[INFO] PISOStep: 1923.26 [ms]
[INFO] TimeStep: 7490.81 [ms]
ExecutionTime = 5.61 s  ClockTime = 8 s

Time = 0.001

Courant Number mean: 0.0215182 max: 0.377124
[INFO] MatrixAssemblyU: 13.066 [ms]
DILUPBiCGStab:  Solving for Ux, Initial residual = 0.1503, Final residual = 0.00127583, No Iterations 5
DILUPBiCGStab:  Solving for Uy, Initial residual = 0.368286, Final residual = 0.00250971, No Iterations 5
DILUPBiCGStab:  Solving for Uz, Initial residual = 0.986404, Final residual = 0.00612411, No Iterations 5
[INFO] MomentumPredictor: 91.6 [ms]
[INFO] MatrixAssemblyPI: 12.871 [ms]
[INFO] AdjustPhi: 0.537 [ms]
[INFO] ConstrainPressure: 0.002 [ms]
[INFO] MatrixAssemblyPII: 3.952 [ms]
[OGL LOG][Proc: 0]: global_index_init: 0.012 [ms]
[OGL LOG][Proc: 0]p_local_coeffs: call_update: 0 [ms]
[OGL LOG][Proc: 0]p_non_local_coeffs: call_update: 0 [ms]
[OGL LOG][Proc: 0]p: update_local_matrix_data: 3.999 [ms]
[OGL LOG][Proc: 0]p: update_non_local_matrix_data: 0.056 [ms]
[OGL LOG][Proc: 0]p: regenerate_distributed_matrix: 12.572 [ms]
[OGL LOG][Proc: 0]p_matrix: call_update: 13.682 [ms]
[OGL LOG][Proc: 0]p_rhs: call_update: 0.664 [ms]
[OGL LOG][Preconditioner.H:346] Generate preconditioner Multigrid MaxLevels 9 MinCoarseRows 10 ZeroGuess 1 Cycle v
[OGL LOG][Proc: 0]p: init_precond: 316.019 [ms]
[OGL LOG][StoppingCriterion.H:237] Creating stopping criterion with minIter 78 frequency 3
[OGL LOG][Proc: 0]p: generate_solver: 0 [ms]
[OGL LOG][Proc: 0]p: solve: 1549.68 [ms]
[OGL LOG][Proc: 0]p: copy_x_back: 0.381 [ms]
[OGL LOG][lduLduBase.H:330] 
Statistics:
	Time per iteration: 11920 [mu s]
	Time per residual norm calculation: 2447.000000 [mu s]
	Time per iteration and DOF: 11.920000 [ns]
	Retrieve results bandwidth 1.312000 [GByte/s]
[OGL LOG][Proc: 0]p: solve_multi_gpu: 1892.99 [ms]
MultigridcudaGKOCG:  Solving for p, Initial residual = 0.691561, Final residual = 9.43483e-05, No Iterations 130
[INFO] SolveP: 1897.96 [ms]
time step continuity errors : sum local = 3.00832e-08, global = -2.35144e-21, cumulative = -4.146e-21
[INFO] ContinuityError: 1.513 [ms]
[INFO] CorrectBoundary: 0.346 [ms]
[INFO] PISOStep: 1924.06 [ms]
[INFO] MatrixAssemblyPI: 13.228 [ms]
[INFO] AdjustPhi: 0.588 [ms]
[INFO] ConstrainPressure: 0.002 [ms]
[INFO] MatrixAssemblyPII: 4.32 [ms]
[OGL LOG][Proc: 0]: global_index_init: 0.031 [ms]
[OGL LOG][Proc: 0]p_local_coeffs: call_update: 0 [ms]
[OGL LOG][Proc: 0]p_non_local_coeffs: call_update: 0 [ms]
[OGL LOG][Proc: 0]p: update_local_matrix_data: 4.055 [ms]
[OGL LOG][Proc: 0]p: update_non_local_matrix_data: 0.061 [ms]
[OGL LOG][Proc: 0]p: regenerate_distributed_matrix: 19.222 [ms]
[OGL LOG][Proc: 0]p_matrix: call_update: 20.672 [ms]
[OGL LOG][Proc: 0]p_rhs: call_update: 0.227 [ms]
[OGL LOG][Preconditioner.H:346] Generate preconditioner Multigrid MaxLevels 9 MinCoarseRows 10 ZeroGuess 1 Cycle v
[OGL LOG][Proc: 0]p: init_precond: 317.951 [ms]
[OGL LOG][StoppingCriterion.H:237] Creating stopping criterion with minIter 78 frequency 3
[OGL LOG][Proc: 0]p: generate_solver: 0 [ms]
[OGL LOG][Proc: 0]p: solve: 1544.16 [ms]
[OGL LOG][Proc: 0]p: copy_x_back: 0.3 [ms]
[OGL LOG][lduLduBase.H:330] 
Statistics:
	Time per iteration: 11878 [mu s]
	Time per residual norm calculation: 2451.000000 [mu s]
	Time per iteration and DOF: 11.878000 [ns]
	Retrieve results bandwidth 1.666000 [GByte/s]
[OGL LOG][Proc: 0]p: solve_multi_gpu: 1896.21 [ms]
MultigridcudaGKOCG:  Solving for p, Initial residual = 0.62076, Final residual = 8.78607e-05, No Iterations 130
[INFO] SolveP: 1901.33 [ms]
time step continuity errors : sum local = 2.85757e-08, global = -9.16555e-22, cumulative = -5.06255e-21
[INFO] ContinuityError: 2.4 [ms]
[INFO] CorrectBoundary: 0.23 [ms]
[INFO] PISOStep: 1928.89 [ms]
[INFO] TimeStep: 3960.14 [ms]
ExecutionTime = 9.56 s  ClockTime = 12 s

Time = 0.0015

Courant Number mean: 0.0324766 max: 0.441239
[INFO] MatrixAssemblyU: 13.459 [ms]
DILUPBiCGStab:  Solving for Ux, Initial residual = 0.0531295, Final residual = 0.00037969, No Iterations 5
DILUPBiCGStab:  Solving for Uy, Initial residual = 0.124743, Final residual = 0.000649307, No Iterations 5
DILUPBiCGStab:  Solving for Uz, Initial residual = 0.581953, Final residual = 0.0034332, No Iterations 5
[INFO] MomentumPredictor: 91.186 [ms]
[INFO] MatrixAssemblyPI: 12.732 [ms]
[INFO] AdjustPhi: 0.512 [ms]
[INFO] ConstrainPressure: 0.002 [ms]
[INFO] MatrixAssemblyPII: 3.979 [ms]
[OGL LOG][Proc: 0]: global_index_init: 0.01 [ms]
[OGL LOG][Proc: 0]p_local_coeffs: call_update: 0 [ms]
[OGL LOG][Proc: 0]p_non_local_coeffs: call_update: 0 [ms]
[OGL LOG][Proc: 0]p: update_local_matrix_data: 5.814 [ms]
[OGL LOG][Proc: 0]p: update_non_local_matrix_data: 0.05 [ms]
[OGL LOG][Proc: 0]p: regenerate_distributed_matrix: 13.36 [ms]
[OGL LOG][Proc: 0]p_matrix: call_update: 15.015 [ms]
[OGL LOG][Proc: 0]p_rhs: call_update: 0.147 [ms]
[OGL LOG][Preconditioner.H:346] Generate preconditioner Multigrid MaxLevels 9 MinCoarseRows 10 ZeroGuess 1 Cycle v
[OGL LOG][Proc: 0]p: init_precond: 317.887 [ms]
[OGL LOG][StoppingCriterion.H:237] Creating stopping criterion with minIter 78 frequency 3
[OGL LOG][Proc: 0]p: generate_solver: 0 [ms]
[OGL LOG][Proc: 0]p: solve: 1329.81 [ms]
[OGL LOG][Proc: 0]p: copy_x_back: 0.363 [ms]
[OGL LOG][lduLduBase.H:330] 
Statistics:
	Time per iteration: 11873 [mu s]
	Time per residual norm calculation: 2449.000000 [mu s]
	Time per iteration and DOF: 11.873000 [ns]
	Retrieve results bandwidth 1.377000 [GByte/s]
[OGL LOG][Proc: 0]p: solve_multi_gpu: 1673.93 [ms]
MultigridcudaGKOCG:  Solving for p, Initial residual = 0.633117, Final residual = 7.99456e-05, No Iterations 112
[INFO] SolveP: 1680.72 [ms]
time step continuity errors : sum local = 1.83554e-08, global = 4.28829e-22, cumulative = -4.63372e-21
[INFO] ContinuityError: 1.499 [ms]
[INFO] CorrectBoundary: 0.254 [ms]
[INFO] PISOStep: 1706.46 [ms]
[INFO] MatrixAssemblyPI: 13.206 [ms]
[INFO] AdjustPhi: 0.554 [ms]
[INFO] ConstrainPressure: 0.002 [ms]
[INFO] MatrixAssemblyPII: 4.512 [ms]
[OGL LOG][Proc: 0]: global_index_init: 0.016 [ms]
[OGL LOG][Proc: 0]p_local_coeffs: call_update: 0 [ms]
[OGL LOG][Proc: 0]p_non_local_coeffs: call_update: 0 [ms]
[OGL LOG][Proc: 0]p: update_local_matrix_data: 4.338 [ms]
[OGL LOG][Proc: 0]p: update_non_local_matrix_data: 0.063 [ms]
[OGL LOG][Proc: 0]p: regenerate_distributed_matrix: 11.929 [ms]
[OGL LOG][Proc: 0]p_matrix: call_update: 13.564 [ms]
[OGL LOG][Proc: 0]p_rhs: call_update: 0.084 [ms]
[OGL LOG][Preconditioner.H:346] Generate preconditioner Multigrid MaxLevels 9 MinCoarseRows 10 ZeroGuess 1 Cycle v
[OGL LOG][Proc: 0]p: init_precond: 313.308 [ms]
[OGL LOG][StoppingCriterion.H:237] Creating stopping criterion with minIter 67 frequency 3
[OGL LOG][Proc: 0]p: generate_solver: 0 [ms]
[OGL LOG][Proc: 0]p: solve: 1338.24 [ms]
[OGL LOG][Proc: 0]p: copy_x_back: 0.367 [ms]
[OGL LOG][lduLduBase.H:330] 
Statistics:
	Time per iteration: 11948 [mu s]
	Time per residual norm calculation: 2593.000000 [mu s]
	Time per iteration and DOF: 11.948000 [ns]
	Retrieve results bandwidth 1.362000 [GByte/s]
[OGL LOG][Proc: 0]p: solve_multi_gpu: 1677.64 [ms]
MultigridcudaGKOCG:  Solving for p, Initial residual = 0.58042, Final residual = 8.09885e-05, No Iterations 112
[INFO] SolveP: 1683.05 [ms]
time step continuity errors : sum local = 1.81034e-08, global = 4.88081e-21, cumulative = 2.47081e-22
[INFO] ContinuityError: 1.745 [ms]
[INFO] CorrectBoundary: 0.297 [ms]
[INFO] PISOStep: 1710.41 [ms]
[INFO] TimeStep: 3523.74 [ms]
ExecutionTime = 13.08 s  ClockTime = 16 s

Time = 0.002

Courant Number mean: 0.0388747 max: 0.452917
[INFO] MatrixAssemblyU: 14.031 [ms]
DILUPBiCGStab:  Solving for Ux, Initial residual = 0.0319152, Final residual = 0.00019762, No Iterations 5
DILUPBiCGStab:  Solving for Uy, Initial residual = 0.0814325, Final residual = 0.000429215, No Iterations 5
DILUPBiCGStab:  Solving for Uz, Initial residual = 0.278992, Final residual = 0.00130248, No Iterations 5
[INFO] MomentumPredictor: 92.541 [ms]
[INFO] MatrixAssemblyPI: 12.49 [ms]
[INFO] AdjustPhi: 2.509 [ms]
[INFO] ConstrainPressure: 0.001 [ms]
[INFO] MatrixAssemblyPII: 3.915 [ms]
[OGL LOG][Proc: 0]: global_index_init: 0.016 [ms]
[OGL LOG][Proc: 0]p_local_coeffs: call_update: 0 [ms]
[OGL LOG][Proc: 0]p_non_local_coeffs: call_update: 0 [ms]
[OGL LOG][Proc: 0]p: update_local_matrix_data: 4.012 [ms]
[OGL LOG][Proc: 0]p: update_non_local_matrix_data: 0.057 [ms]
[OGL LOG][Proc: 0]p: regenerate_distributed_matrix: 13.212 [ms]
[OGL LOG][Proc: 0]p_matrix: call_update: 14.62 [ms]
[OGL LOG][Proc: 0]p_rhs: call_update: 0.101 [ms]
[OGL LOG][Preconditioner.H:346] Generate preconditioner Multigrid MaxLevels 9 MinCoarseRows 10 ZeroGuess 1 Cycle v
[OGL LOG][Proc: 0]p: init_precond: 314.362 [ms]
[OGL LOG][StoppingCriterion.H:237] Creating stopping criterion with minIter 67 frequency 3
[OGL LOG][Proc: 0]p: generate_solver: 0 [ms]
[OGL LOG][Proc: 0]p: solve: 1375.84 [ms]
[OGL LOG][Proc: 0]p: copy_x_back: 0.174 [ms]
[OGL LOG][lduLduBase.H:330] 
Statistics:
	Time per iteration: 11963 [mu s]
	Time per residual norm calculation: 2306.000000 [mu s]
	Time per iteration and DOF: 11.963000 [ns]
	Retrieve results bandwidth 2.873000 [GByte/s]
[OGL LOG][Proc: 0]p: solve_multi_gpu: 1716.55 [ms]
MultigridcudaGKOCG:  Solving for p, Initial residual = 0.413167, Final residual = 6.85559e-05, No Iterations 115
[INFO] SolveP: 1722.09 [ms]
time step continuity errors : sum local = 1.34296e-08, global = 2.72385e-21, cumulative = 2.97094e-21
[INFO] ContinuityError: 3.402 [ms]
[INFO] CorrectBoundary: 0.595 [ms]
[INFO] PISOStep: 1750.75 [ms]
[INFO] MatrixAssemblyPI: 12.393 [ms]
[INFO] AdjustPhi: 1.795 [ms]
[INFO] ConstrainPressure: 0.006 [ms]
[INFO] MatrixAssemblyPII: 3.602 [ms]
[OGL LOG][Proc: 0]: global_index_init: 0.016 [ms]
[OGL LOG][Proc: 0]p_local_coeffs: call_update: 0 [ms]
[OGL LOG][Proc: 0]p_non_local_coeffs: call_update: 0 [ms]
[OGL LOG][Proc: 0]p: update_local_matrix_data: 3.923 [ms]
[OGL LOG][Proc: 0]p: update_non_local_matrix_data: 0.044 [ms]
[OGL LOG][Proc: 0]p: regenerate_distributed_matrix: 12.468 [ms]
[OGL LOG][Proc: 0]p_matrix: call_update: 14.098 [ms]
[OGL LOG][Proc: 0]p_rhs: call_update: 0.094 [ms]
[OGL LOG][Preconditioner.H:346] Generate preconditioner Multigrid MaxLevels 9 MinCoarseRows 10 ZeroGuess 1 Cycle v
[OGL LOG][Proc: 0]p: init_precond: 319.984 [ms]
[OGL LOG][StoppingCriterion.H:237] Creating stopping criterion with minIter 69 frequency 3
[OGL LOG][Proc: 0]p: generate_solver: 0 [ms]
[OGL LOG][Proc: 0]p: solve: 1331.59 [ms]
[OGL LOG][Proc: 0]p: copy_x_back: 0.362 [ms]
[OGL LOG][lduLduBase.H:330] 
Statistics:
	Time per iteration: 11889 [mu s]
	Time per residual norm calculation: 2447.000000 [mu s]
	Time per iteration and DOF: 11.889000 [ns]
	Retrieve results bandwidth 1.381000 [GByte/s]
[OGL LOG][Proc: 0]p: solve_multi_gpu: 1678.17 [ms]
MultigridcudaGKOCG:  Solving for p, Initial residual = 0.35127, Final residual = 9.78865e-05, No Iterations 112
[INFO] SolveP: 1683.03 [ms]
time step continuity errors : sum local = 1.93623e-08, global = -7.57697e-22, cumulative = 2.21324e-21
[INFO] ContinuityError: 1.332 [ms]
[INFO] CorrectBoundary: 0.245 [ms]
[INFO] PISOStep: 1710.27 [ms]
[INFO] TimeStep: 3569.47 [ms]
ExecutionTime = 16.64 s  ClockTime = 19 s

Time = 0.0025

Courant Number mean: 0.0439265 max: 0.459604
[INFO] MatrixAssemblyU: 13.439 [ms]
DILUPBiCGStab:  Solving for Ux, Initial residual = 0.0235103, Final residual = 0.000126965, No Iterations 5
DILUPBiCGStab:  Solving for Uy, Initial residual = 0.0515677, Final residual = 0.000259231, No Iterations 5
DILUPBiCGStab:  Solving for Uz, Initial residual = 0.100808, Final residual = 0.000520564, No Iterations 5
[INFO] MomentumPredictor: 91.084 [ms]
[INFO] MatrixAssemblyPI: 12.751 [ms]
[INFO] AdjustPhi: 0.494 [ms]
[INFO] ConstrainPressure: 0.002 [ms]
[INFO] MatrixAssemblyPII: 3.957 [ms]
[OGL LOG][Proc: 0]: global_index_init: 0.011 [ms]
[OGL LOG][Proc: 0]p_local_coeffs: call_update: 0 [ms]
[OGL LOG][Proc: 0]p_non_local_coeffs: call_update: 0 [ms]
[OGL LOG][Proc: 0]p: update_local_matrix_data: 4.232 [ms]
[OGL LOG][Proc: 0]p: update_non_local_matrix_data: 0.055 [ms]
[OGL LOG][Proc: 0]p: regenerate_distributed_matrix: 12.284 [ms]
[OGL LOG][Proc: 0]p_matrix: call_update: 13.834 [ms]
[OGL LOG][Proc: 0]p_rhs: call_update: 0.108 [ms]
[OGL LOG][Preconditioner.H:346] Generate preconditioner Multigrid MaxLevels 9 MinCoarseRows 10 ZeroGuess 1 Cycle v
[OGL LOG][Proc: 0]p: init_precond: 316.604 [ms]
[OGL LOG][StoppingCriterion.H:237] Creating stopping criterion with minIter 67 frequency 3
[OGL LOG][Proc: 0]p: generate_solver: 0 [ms]
[OGL LOG][Proc: 0]p: solve: 1371.54 [ms]
[OGL LOG][Proc: 0]p: copy_x_back: 0.199 [ms]
[OGL LOG][lduLduBase.H:330] 
Statistics:
	Time per iteration: 11926 [mu s]
	Time per residual norm calculation: 2447.000000 [mu s]
	Time per iteration and DOF: 11.926000 [ns]
	Retrieve results bandwidth 2.512000 [GByte/s]
[OGL LOG][Proc: 0]p: solve_multi_gpu: 1714 [ms]
MultigridcudaGKOCG:  Solving for p, Initial residual = 0.315375, Final residual = 7.17764e-05, No Iterations 115
[INFO] SolveP: 1719.36 [ms]
time step continuity errors : sum local = 1.16036e-08, global = -6.47501e-21, cumulative = -4.26178e-21
[INFO] ContinuityError: 2.798 [ms]
[INFO] CorrectBoundary: 0.644 [ms]
[INFO] PISOStep: 1745.36 [ms]
[INFO] MatrixAssemblyPI: 12.675 [ms]
[INFO] AdjustPhi: 1.004 [ms]
[INFO] ConstrainPressure: 0.002 [ms]
[INFO] MatrixAssemblyPII: 3.744 [ms]
[OGL LOG][Proc: 0]: global_index_init: 0.022 [ms]
[OGL LOG][Proc: 0]p_local_coeffs: call_update: 0 [ms]
[OGL LOG][Proc: 0]p_non_local_coeffs: call_update: 0 [ms]
[OGL LOG][Proc: 0]p: update_local_matrix_data: 3.528 [ms]
[OGL LOG][Proc: 0]p: update_non_local_matrix_data: 0.043 [ms]
[OGL LOG][Proc: 0]p: regenerate_distributed_matrix: 11.372 [ms]
[OGL LOG][Proc: 0]p_matrix: call_update: 12.986 [ms]
[OGL LOG][Proc: 0]p_rhs: call_update: 0.149 [ms]
[OGL LOG][Preconditioner.H:346] Generate preconditioner Multigrid MaxLevels 9 MinCoarseRows 10 ZeroGuess 1 Cycle v
[OGL LOG][Proc: 0]p: init_precond: 312.956 [ms]
[OGL LOG][StoppingCriterion.H:237] Creating stopping criterion with minIter 69 frequency 3
[OGL LOG][Proc: 0]p: generate_solver: 0 [ms]
[OGL LOG][Proc: 0]p: solve: 1340.5 [ms]
[OGL LOG][Proc: 0]p: copy_x_back: 0.18 [ms]
[OGL LOG][lduLduBase.H:330] 
Statistics:
	Time per iteration: 11968 [mu s]
	Time per residual norm calculation: 3096.000000 [mu s]
	Time per iteration and DOF: 11.968000 [ns]
	Retrieve results bandwidth 2.777000 [GByte/s]
[OGL LOG][Proc: 0]p: solve_multi_gpu: 1680.03 [ms]
MultigridcudaGKOCG:  Solving for p, Initial residual = 0.269819, Final residual = 9.75661e-05, No Iterations 112
[INFO] SolveP: 1684.65 [ms]
time step continuity errors : sum local = 1.56554e-08, global = 5.22944e-21, cumulative = 9.67659e-22
[INFO] ContinuityError: 2.296 [ms]
[INFO] CorrectBoundary: 0.45 [ms]
[INFO] PISOStep: 1710.79 [ms]
[INFO] TimeStep: 3562.54 [ms]
ExecutionTime = 20.19 s  ClockTime = 23 s

Time = 0.003

Courant Number mean: 0.0479663 max: 0.463844
[INFO] MatrixAssemblyU: 12.677 [ms]
DILUPBiCGStab:  Solving for Ux, Initial residual = 0.0179093, Final residual = 9.3972e-05, No Iterations 5
DILUPBiCGStab:  Solving for Uy, Initial residual = 0.0401507, Final residual = 0.000138725, No Iterations 5
DILUPBiCGStab:  Solving for Uz, Initial residual = 0.0866001, Final residual = 0.000419249, No Iterations 5
[INFO] MomentumPredictor: 91.799 [ms]
[INFO] MatrixAssemblyPI: 12.694 [ms]
[INFO] AdjustPhi: 0.51 [ms]
[INFO] ConstrainPressure: 0.002 [ms]
[INFO] MatrixAssemblyPII: 3.887 [ms]
[OGL LOG][Proc: 0]: global_index_init: 0.024 [ms]
[OGL LOG][Proc: 0]p_local_coeffs: call_update: 0 [ms]
[OGL LOG][Proc: 0]p_non_local_coeffs: call_update: 0 [ms]
[OGL LOG][Proc: 0]p: update_local_matrix_data: 3.926 [ms]
[OGL LOG][Proc: 0]p: update_non_local_matrix_data: 0.061 [ms]
[OGL LOG][Proc: 0]p: regenerate_distributed_matrix: 12.7 [ms]
[OGL LOG][Proc: 0]p_matrix: call_update: 14.19 [ms]
[OGL LOG][Proc: 0]p_rhs: call_update: 0.075 [ms]
[OGL LOG][Preconditioner.H:346] Generate preconditioner Multigrid MaxLevels 9 MinCoarseRows 10 ZeroGuess 1 Cycle v
[OGL LOG][Proc: 0]p: init_precond: 313.325 [ms]
[OGL LOG][StoppingCriterion.H:237] Creating stopping criterion with minIter 67 frequency 3
[OGL LOG][Proc: 0]p: generate_solver: 0 [ms]
[OGL LOG][Proc: 0]p: solve: 1306.47 [ms]
[OGL LOG][Proc: 0]p: copy_x_back: 0.391 [ms]
[OGL LOG][lduLduBase.H:330] 
Statistics:
	Time per iteration: 11985 [mu s]
	Time per residual norm calculation: 2442.000000 [mu s]
	Time per iteration and DOF: 11.985000 [ns]
	Retrieve results bandwidth 1.278000 [GByte/s]
[OGL LOG][Proc: 0]p: solve_multi_gpu: 1647.35 [ms]
MultigridcudaGKOCG:  Solving for p, Initial residual = 0.197017, Final residual = 8.00116e-05, No Iterations 109
[INFO] SolveP: 1652.25 [ms]
time step continuity errors : sum local = 1.24811e-08, global = -7.96961e-21, cumulative = -7.00195e-21
[INFO] ContinuityError: 1.522 [ms]
[INFO] CorrectBoundary: 0.474 [ms]
[INFO] PISOStep: 1678.37 [ms]
[INFO] MatrixAssemblyPI: 13.343 [ms]
[INFO] AdjustPhi: 0.545 [ms]
[INFO] ConstrainPressure: 0.002 [ms]
[INFO] MatrixAssemblyPII: 4.494 [ms]
[OGL LOG][Proc: 0]: global_index_init: 0.011 [ms]
[OGL LOG][Proc: 0]p_local_coeffs: call_update: 0 [ms]
[OGL LOG][Proc: 0]p_non_local_coeffs: call_update: 0 [ms]
[OGL LOG][Proc: 0]p: update_local_matrix_data: 4.136 [ms]
[OGL LOG][Proc: 0]p: update_non_local_matrix_data: 0.052 [ms]
[OGL LOG][Proc: 0]p: regenerate_distributed_matrix: 11.879 [ms]
[OGL LOG][Proc: 0]p_matrix: call_update: 13.412 [ms]
[OGL LOG][Proc: 0]p_rhs: call_update: 0.413 [ms]
[OGL LOG][Preconditioner.H:346] Generate preconditioner Multigrid MaxLevels 9 MinCoarseRows 10 ZeroGuess 1 Cycle v
[OGL LOG][Proc: 0]p: init_precond: 312.544 [ms]
[OGL LOG][StoppingCriterion.H:237] Creating stopping criterion with minIter 65 frequency 3
[OGL LOG][Proc: 0]p: generate_solver: 0 [ms]
[OGL LOG][Proc: 0]p: solve: 1308.42 [ms]
[OGL LOG][Proc: 0]p: copy_x_back: 0.175 [ms]
[OGL LOG][lduLduBase.H:330] 
Statistics:
	Time per iteration: 12003 [mu s]
	Time per residual norm calculation: 2452.000000 [mu s]
	Time per iteration and DOF: 12.003000 [ns]
	Retrieve results bandwidth 2.857000 [GByte/s]
[OGL LOG][Proc: 0]p: solve_multi_gpu: 1646.68 [ms]
MultigridcudaGKOCG:  Solving for p, Initial residual = 0.163788, Final residual = 7.60769e-05, No Iterations 109
[INFO] SolveP: 1651.67 [ms]
time step continuity errors : sum local = 1.1877e-08, global = -2.39119e-21, cumulative = -9.39314e-21
[INFO] ContinuityError: 3.687 [ms]
[INFO] CorrectBoundary: 0.844 [ms]
[INFO] PISOStep: 1679.32 [ms]
[INFO] TimeStep: 3464.19 [ms]
ExecutionTime = 23.66 s  ClockTime = 26 s

Time = 0.0035

Courant Number mean: 0.0513756 max: 0.466723
[INFO] MatrixAssemblyU: 12.457 [ms]
DILUPBiCGStab:  Solving for Ux, Initial residual = 0.0146455, Final residual = 6.72374e-05, No Iterations 5
DILUPBiCGStab:  Solving for Uy, Initial residual = 0.0317914, Final residual = 0.000119725, No Iterations 5
DILUPBiCGStab:  Solving for Uz, Initial residual = 0.0580082, Final residual = 0.000257364, No Iterations 5
[INFO] MomentumPredictor: 94.435 [ms]
[INFO] MatrixAssemblyPI: 12.371 [ms]
[INFO] AdjustPhi: 2.729 [ms]
[INFO] ConstrainPressure: 0.002 [ms]
[INFO] MatrixAssemblyPII: 3.929 [ms]
[OGL LOG][Proc: 0]: global_index_init: 0.038 [ms]
[OGL LOG][Proc: 0]p_local_coeffs: call_update: 0 [ms]
[OGL LOG][Proc: 0]p_non_local_coeffs: call_update: 0 [ms]
[OGL LOG][Proc: 0]p: update_local_matrix_data: 3.86 [ms]
[OGL LOG][Proc: 0]p: update_non_local_matrix_data: 0.054 [ms]
[OGL LOG][Proc: 0]p: regenerate_distributed_matrix: 12.728 [ms]
[OGL LOG][Proc: 0]p_matrix: call_update: 14.135 [ms]
[OGL LOG][Proc: 0]p_rhs: call_update: 1.479 [ms]
[OGL LOG][Preconditioner.H:346] Generate preconditioner Multigrid MaxLevels 9 MinCoarseRows 10 ZeroGuess 1 Cycle v
[OGL LOG][Proc: 0]p: init_precond: 317.775 [ms]
[OGL LOG][StoppingCriterion.H:237] Creating stopping criterion with minIter 65 frequency 3
[OGL LOG][Proc: 0]p: generate_solver: 0.001 [ms]
[OGL LOG][Proc: 0]p: solve: 1302.41 [ms]
[OGL LOG][Proc: 0]p: copy_x_back: 0.168 [ms]
[OGL LOG][lduLduBase.H:330] 
Statistics:
	Time per iteration: 11948 [mu s]
	Time per residual norm calculation: 2448.000000 [mu s]
	Time per iteration and DOF: 11.948000 [ns]
	Retrieve results bandwidth 2.976000 [GByte/s]
[OGL LOG][Proc: 0]p: solve_multi_gpu: 1647.89 [ms]
MultigridcudaGKOCG:  Solving for p, Initial residual = 0.139463, Final residual = 6.30244e-05, No Iterations 109
[INFO] SolveP: 1652.57 [ms]
time step continuity errors : sum local = 9.33298e-09, global = 3.21398e-21, cumulative = -6.17916e-21
[INFO] ContinuityError: 3.375 [ms]
[INFO] CorrectBoundary: 0.462 [ms]
[INFO] PISOStep: 1681.02 [ms]
[INFO] MatrixAssemblyPI: 12.537 [ms]
[INFO] AdjustPhi: 0.997 [ms]
[INFO] ConstrainPressure: 0.002 [ms]
[INFO] MatrixAssemblyPII: 3.787 [ms]
[OGL LOG][Proc: 0]: global_index_init: 0.013 [ms]
[OGL LOG][Proc: 0]p_local_coeffs: call_update: 0 [ms]
[OGL LOG][Proc: 0]p_non_local_coeffs: call_update: 0 [ms]
[OGL LOG][Proc: 0]p: update_local_matrix_data: 3.937 [ms]
[OGL LOG][Proc: 0]p: update_non_local_matrix_data: 0.052 [ms]
[OGL LOG][Proc: 0]p: regenerate_distributed_matrix: 11.343 [ms]
[OGL LOG][Proc: 0]p_matrix: call_update: 12.844 [ms]
[OGL LOG][Proc: 0]p_rhs: call_update: 0.228 [ms]
[OGL LOG][Preconditioner.H:346] Generate preconditioner Multigrid MaxLevels 9 MinCoarseRows 10 ZeroGuess 1 Cycle v
[OGL LOG][Proc: 0]p: init_precond: 318.576 [ms]
[OGL LOG][StoppingCriterion.H:237] Creating stopping criterion with minIter 65 frequency 3
[OGL LOG][Proc: 0]p: generate_solver: 0 [ms]
[OGL LOG][Proc: 0]p: solve: 1264.58 [ms]
[OGL LOG][Proc: 0]p: copy_x_back: 0.353 [ms]
[OGL LOG][lduLduBase.H:330] 
Statistics:
	Time per iteration: 11929 [mu s]
	Time per residual norm calculation: 2445.000000 [mu s]
	Time per iteration and DOF: 11.929000 [ns]
	Retrieve results bandwidth 1.416000 [GByte/s]
[OGL LOG][Proc: 0]p: solve_multi_gpu: 1608.48 [ms]
MultigridcudaGKOCG:  Solving for p, Initial residual = 0.116582, Final residual = 9.3085e-05, No Iterations 106
[INFO] SolveP: 1613.47 [ms]
time step continuity errors : sum local = 1.37778e-08, global = 6.86038e-21, cumulative = 6.81222e-22
[INFO] ContinuityError: 1.722 [ms]
[INFO] CorrectBoundary: 0.087 [ms]
[INFO] PISOStep: 1640.43 [ms]
[INFO] TimeStep: 3430.16 [ms]
ExecutionTime = 27.08 s  ClockTime = 30 s

Time = 0.004

Courant Number mean: 0.0543149 max: 0.468932
[INFO] MatrixAssemblyU: 13.505 [ms]
DILUPBiCGStab:  Solving for Ux, Initial residual = 0.0122913, Final residual = 5.13286e-05, No Iterations 5
DILUPBiCGStab:  Solving for Uy, Initial residual = 0.026534, Final residual = 7.7991e-05, No Iterations 5
DILUPBiCGStab:  Solving for Uz, Initial residual = 0.0513169, Final residual = 0.000174506, No Iterations 5
[INFO] MomentumPredictor: 90.903 [ms]
[INFO] MatrixAssemblyPI: 12.696 [ms]
[INFO] AdjustPhi: 0.502 [ms]
[INFO] ConstrainPressure: 0.002 [ms]
[INFO] MatrixAssemblyPII: 3.908 [ms]
[OGL LOG][Proc: 0]: global_index_init: 0.012 [ms]
[OGL LOG][Proc: 0]p_local_coeffs: call_update: 0 [ms]
[OGL LOG][Proc: 0]p_non_local_coeffs: call_update: 0 [ms]
[OGL LOG][Proc: 0]p: update_local_matrix_data: 4.067 [ms]
[OGL LOG][Proc: 0]p: update_non_local_matrix_data: 0.059 [ms]
[OGL LOG][Proc: 0]p: regenerate_distributed_matrix: 12.218 [ms]
[OGL LOG][Proc: 0]p_matrix: call_update: 13.795 [ms]
[OGL LOG][Proc: 0]p_rhs: call_update: 0.091 [ms]
[OGL LOG][Preconditioner.H:346] Generate preconditioner Multigrid MaxLevels 9 MinCoarseRows 10 ZeroGuess 1 Cycle v
[OGL LOG][Proc: 0]p: init_precond: 314.468 [ms]
[OGL LOG][StoppingCriterion.H:237] Creating stopping criterion with minIter 63 frequency 3
[OGL LOG][Proc: 0]p: generate_solver: 0.001 [ms]
[OGL LOG][Proc: 0]p: solve: 762.715 [ms]
[OGL LOG][Proc: 0]p: copy_x_back: 0.191 [ms]
[OGL LOG][lduLduBase.H:330] 
Statistics:
	Time per iteration: 11917 [mu s]
	Time per residual norm calculation: 2446.000000 [mu s]
	Time per iteration and DOF: 11.917000 [ns]
	Retrieve results bandwidth 2.617000 [GByte/s]
[OGL LOG][Proc: 0]p: solve_multi_gpu: 1103.13 [ms]
MultigridcudaGKOCG:  Solving for p, Initial residual = 0.0906375, Final residual = 7.48468e-05, No Iterations 64
[INFO] SolveP: 1108.03 [ms]
time step continuity errors : sum local = 1.19719e-08, global = 1.33755e-21, cumulative = 2.01877e-21
[INFO] ContinuityError: 2.598 [ms]
[INFO] CorrectBoundary: 0.474 [ms]
[INFO] PISOStep: 1134.36 [ms]
[INFO] MatrixAssemblyPI: 12.596 [ms]
[INFO] AdjustPhi: 0.881 [ms]
[INFO] ConstrainPressure: 0.002 [ms]
[INFO] MatrixAssemblyPII: 3.894 [ms]
[OGL LOG][Proc: 0]: global_index_init: 0.027 [ms]
[OGL LOG][Proc: 0]p_local_coeffs: call_update: 0 [ms]
[OGL LOG][Proc: 0]p_non_local_coeffs: call_update: 0 [ms]
[OGL LOG][Proc: 0]p: update_local_matrix_data: 3.866 [ms]
[OGL LOG][Proc: 0]p: update_non_local_matrix_data: 0.047 [ms]
[OGL LOG][Proc: 0]p: regenerate_distributed_matrix: 11.787 [ms]
[OGL LOG][Proc: 0]p_matrix: call_update: 13.322 [ms]
[OGL LOG][Proc: 0]p_rhs: call_update: 0.458 [ms]
[OGL LOG][Preconditioner.H:346] Generate preconditioner Multigrid MaxLevels 9 MinCoarseRows 10 ZeroGuess 1 Cycle v
[OGL LOG][Proc: 0]p: init_precond: 320.781 [ms]
[OGL LOG][StoppingCriterion.H:237] Creating stopping criterion with minIter 38 frequency 2
[OGL LOG][Proc: 0]p: generate_solver: 0 [ms]
[OGL LOG][Proc: 0]p: solve: 602.432 [ms]
[OGL LOG][Proc: 0]p: copy_x_back: 0.165 [ms]
[OGL LOG][lduLduBase.H:330] 
Statistics:
	Time per iteration: 12294 [mu s]
	Time per residual norm calculation: 2593.000000 [mu s]
	Time per iteration and DOF: 12.294000 [ns]
	Retrieve results bandwidth 3.030000 [GByte/s]
[OGL LOG][Proc: 0]p: solve_multi_gpu: 950.183 [ms]
MultigridcudaGKOCG:  Solving for p, Initial residual = 0.0749607, Final residual = 7.54623e-05, No Iterations 49
[INFO] SolveP: 954.855 [ms]
time step continuity errors : sum local = 1.12796e-08, global = -8.15921e-21, cumulative = -6.14043e-21
[INFO] ContinuityError: 3.33 [ms]
[INFO] CorrectBoundary: 0.674 [ms]
[INFO] PISOStep: 981.788 [ms]
[INFO] TimeStep: 2222.9 [ms]
ExecutionTime = 29.3 s  ClockTime = 32 s

Time = 0.0045

Courant Number mean: 0.0568924 max: 0.470637
[INFO] MatrixAssemblyU: 13.288 [ms]
DILUPBiCGStab:  Solving for Ux, Initial residual = 0.010531, Final residual = 3.98121e-05, No Iterations 5
DILUPBiCGStab:  Solving for Uy, Initial residual = 0.0226971, Final residual = 6.80348e-05, No Iterations 5
DILUPBiCGStab:  Solving for Uz, Initial residual = 0.0431922, Final residual = 0.000129285, No Iterations 5
[INFO] MomentumPredictor: 96.077 [ms]
[INFO] MatrixAssemblyPI: 12.461 [ms]
[INFO] AdjustPhi: 2.624 [ms]
[INFO] ConstrainPressure: 0.002 [ms]
[INFO] MatrixAssemblyPII: 3.906 [ms]
[OGL LOG][Proc: 0]: global_index_init: 0.045 [ms]
[OGL LOG][Proc: 0]p_local_coeffs: call_update: 0 [ms]
[OGL LOG][Proc: 0]p_non_local_coeffs: call_update: 0 [ms]
[OGL LOG][Proc: 0]p: update_local_matrix_data: 3.967 [ms]
[OGL LOG][Proc: 0]p: update_non_local_matrix_data: 0.048 [ms]
[OGL LOG][Proc: 0]p: regenerate_distributed_matrix: 12.835 [ms]
[OGL LOG][Proc: 0]p_matrix: call_update: 14.368 [ms]
[OGL LOG][Proc: 0]p_rhs: call_update: 0.085 [ms]
[OGL LOG][Preconditioner.H:346] Generate preconditioner Multigrid MaxLevels 9 MinCoarseRows 10 ZeroGuess 1 Cycle v
[OGL LOG][Proc: 0]p: init_precond: 312.972 [ms]
[OGL LOG][StoppingCriterion.H:237] Creating stopping criterion with minIter 29 frequency 2
[OGL LOG][Proc: 0]p: generate_solver: 0.001 [ms]
[OGL LOG][Proc: 0]p: solve: 594.117 [ms]
[OGL LOG][Proc: 0]p: copy_x_back: 0.164 [ms]
[OGL LOG][lduLduBase.H:330] 
Statistics:
	Time per iteration: 12640 [mu s]
	Time per residual norm calculation: 2588.000000 [mu s]
	Time per iteration and DOF: 12.640000 [ns]
	Retrieve results bandwidth 3.048000 [GByte/s]
[OGL LOG][Proc: 0]p: solve_multi_gpu: 933.488 [ms]
MultigridcudaGKOCG:  Solving for p, Initial residual = 0.0666198, Final residual = 9.73595e-05, No Iterations 47
[INFO] SolveP: 938.231 [ms]
time step continuity errors : sum local = 1.39646e-08, global = -1.04628e-21, cumulative = -7.18671e-21
[INFO] ContinuityError: 2.768 [ms]
[INFO] CorrectBoundary: 0.133 [ms]
[INFO] PISOStep: 965.484 [ms]
[INFO] MatrixAssemblyPI: 12.116 [ms]
[INFO] AdjustPhi: 2.288 [ms]
[INFO] ConstrainPressure: 0.002 [ms]
[INFO] MatrixAssemblyPII: 3.927 [ms]
[OGL LOG][Proc: 0]: global_index_init: 0.035 [ms]
[OGL LOG][Proc: 0]p_local_coeffs: call_update: 0 [ms]
[OGL LOG][Proc: 0]p_non_local_coeffs: call_update: 0 [ms]
[OGL LOG][Proc: 0]p: update_local_matrix_data: 3.465 [ms]
[OGL LOG][Proc: 0]p: update_non_local_matrix_data: 0.054 [ms]
[OGL LOG][Proc: 0]p: regenerate_distributed_matrix: 11.332 [ms]
[OGL LOG][Proc: 0]p_matrix: call_update: 12.853 [ms]
[OGL LOG][Proc: 0]p_rhs: call_update: 0.092 [ms]
[OGL LOG][Preconditioner.H:346] Generate preconditioner Multigrid MaxLevels 9 MinCoarseRows 10 ZeroGuess 1 Cycle v
[OGL LOG][Proc: 0]p: init_precond: 315.516 [ms]
[OGL LOG][StoppingCriterion.H:237] Creating stopping criterion with minIter 28 frequency 2
[OGL LOG][Proc: 0]p: generate_solver: 0 [ms]
[OGL LOG][Proc: 0]p: solve: 593.63 [ms]
[OGL LOG][Proc: 0]p: copy_x_back: 0.167 [ms]
[OGL LOG][lduLduBase.H:330] 
Statistics:
	Time per iteration: 12630 [mu s]
	Time per residual norm calculation: 2447.000000 [mu s]
	Time per iteration and DOF: 12.630000 [ns]
	Retrieve results bandwidth 2.994000 [GByte/s]
[OGL LOG][Proc: 0]p: solve_multi_gpu: 935.169 [ms]
MultigridcudaGKOCG:  Solving for p, Initial residual = 0.0555469, Final residual = 9.18769e-05, No Iterations 47
[INFO] SolveP: 939.832 [ms]
time step continuity errors : sum local = 1.31581e-08, global = 2.95241e-21, cumulative = -4.2343e-21
[INFO] ContinuityError: 3.651 [ms]
[INFO] CorrectBoundary: 0.446 [ms]
[INFO] PISOStep: 968.007 [ms]
[INFO] TimeStep: 2044.68 [ms]
ExecutionTime = 31.35 s  ClockTime = 34 s

Time = 0.005

Courant Number mean: 0.059188 max: 0.472029
[INFO] MatrixAssemblyU: 11.726 [ms]
DILUPBiCGStab:  Solving for Ux, Initial residual = 0.00921935, Final residual = 3.32048e-05, No Iterations 5
DILUPBiCGStab:  Solving for Uy, Initial residual = 0.0197438, Final residual = 5.13622e-05, No Iterations 5
DILUPBiCGStab:  Solving for Uz, Initial residual = 0.0386932, Final residual = 0.000100776, No Iterations 5
[INFO] MomentumPredictor: 92.445 [ms]
[INFO] MatrixAssemblyPI: 12.575 [ms]
[INFO] AdjustPhi: 0.548 [ms]
[INFO] ConstrainPressure: 0.001 [ms]
[INFO] MatrixAssemblyPII: 3.885 [ms]
[OGL LOG][Proc: 0]: global_index_init: 0.046 [ms]
[OGL LOG][Proc: 0]p_local_coeffs: call_update: 0 [ms]
[OGL LOG][Proc: 0]p_non_local_coeffs: call_update: 0 [ms]
[OGL LOG][Proc: 0]p: update_local_matrix_data: 3.992 [ms]
[OGL LOG][Proc: 0]p: update_non_local_matrix_data: 0.052 [ms]
[OGL LOG][Proc: 0]p: regenerate_distributed_matrix: 12.611 [ms]
[OGL LOG][Proc: 0]p_matrix: call_update: 14.143 [ms]
[OGL LOG][Proc: 0]p_rhs: call_update: 0.124 [ms]
[OGL LOG][Preconditioner.H:346] Generate preconditioner Multigrid MaxLevels 9 MinCoarseRows 10 ZeroGuess 1 Cycle v
[OGL LOG][Proc: 0]p: init_precond: 314.946 [ms]
[OGL LOG][StoppingCriterion.H:237] Creating stopping criterion with minIter 28 frequency 1
[OGL LOG][Proc: 0]p: generate_solver: 0 [ms]
[OGL LOG][Proc: 0]p: solve: 613.616 [ms]
[OGL LOG][Proc: 0]p: copy_x_back: 0.182 [ms]
[OGL LOG][lduLduBase.H:330] 
Statistics:
	Time per iteration: 13055 [mu s]
	Time per residual norm calculation: 2451.000000 [mu s]
	Time per iteration and DOF: 13.055000 [ns]
	Retrieve results bandwidth 2.747000 [GByte/s]
[OGL LOG][Proc: 0]p: solve_multi_gpu: 956.24 [ms]
MultigridcudaGKOCG:  Solving for p, Initial residual = 0.0443676, Final residual = 9.06666e-05, No Iterations 47
[INFO] SolveP: 961.064 [ms]
time step continuity errors : sum local = 1.42233e-08, global = 9.56397e-21, cumulative = 5.32967e-21
[INFO] ContinuityError: 2.135 [ms]
[INFO] CorrectBoundary: 0.488 [ms]
[INFO] PISOStep: 986.216 [ms]
[INFO] MatrixAssemblyPI: 12.453 [ms]
[INFO] AdjustPhi: 1.015 [ms]
[INFO] ConstrainPressure: 0.002 [ms]
[INFO] MatrixAssemblyPII: 3.894 [ms]
[OGL LOG][Proc: 0]: global_index_init: 0.017 [ms]
[OGL LOG][Proc: 0]p_local_coeffs: call_update: 0 [ms]
[OGL LOG][Proc: 0]p_non_local_coeffs: call_update: 0 [ms]
[OGL LOG][Proc: 0]p: update_local_matrix_data: 3.888 [ms]
[OGL LOG][Proc: 0]p: update_non_local_matrix_data: 0.052 [ms]
[OGL LOG][Proc: 0]p: regenerate_distributed_matrix: 10.848 [ms]
[OGL LOG][Proc: 0]p_matrix: call_update: 12.378 [ms]
[OGL LOG][Proc: 0]p_rhs: call_update: 0.076 [ms]
[OGL LOG][Preconditioner.H:346] Generate preconditioner Multigrid MaxLevels 9 MinCoarseRows 10 ZeroGuess 1 Cycle v
[OGL LOG][Proc: 0]p: init_precond: 318.507 [ms]
[OGL LOG][StoppingCriterion.H:237] Creating stopping criterion with minIter 28 frequency 1
[OGL LOG][Proc: 0]p: generate_solver: 0.001 [ms]
[OGL LOG][Proc: 0]p: solve: 599.005 [ms]
[OGL LOG][Proc: 0]p: copy_x_back: 0.17 [ms]
[OGL LOG][lduLduBase.H:330] 
Statistics:
	Time per iteration: 13021 [mu s]
	Time per residual norm calculation: 2438.000000 [mu s]
	Time per iteration and DOF: 13.021000 [ns]
	Retrieve results bandwidth 2.941000 [GByte/s]
[OGL LOG][Proc: 0]p: solve_multi_gpu: 942.377 [ms]
MultigridcudaGKOCG:  Solving for p, Initial residual = 0.0374293, Final residual = 9.70902e-05, No Iterations 46
[INFO] SolveP: 947.033 [ms]
time step continuity errors : sum local = 1.4233e-08, global = 1.06782e-20, cumulative = 1.60079e-20
[INFO] ContinuityError: 2.27 [ms]
[INFO] CorrectBoundary: 0.325 [ms]
[INFO] PISOStep: 972.364 [ms]
[INFO] TimeStep: 2065.41 [ms]
ExecutionTime = 33.39 s  ClockTime = 36 s

Time = 0.0055

Courant Number mean: 0.0612481 max: 0.473178
[INFO] MatrixAssemblyU: 13.118 [ms]
DILUPBiCGStab:  Solving for Ux, Initial residual = 0.00813863, Final residual = 2.75949e-05, No Iterations 5
DILUPBiCGStab:  Solving for Uy, Initial residual = 0.0174746, Final residual = 4.57157e-05, No Iterations 5
DILUPBiCGStab:  Solving for Uz, Initial residual = 0.0343501, Final residual = 8.66955e-05, No Iterations 5
[INFO] MomentumPredictor: 90.937 [ms]
[INFO] MatrixAssemblyPI: 12.538 [ms]
[INFO] AdjustPhi: 0.539 [ms]
[INFO] ConstrainPressure: 0.002 [ms]
[INFO] MatrixAssemblyPII: 3.781 [ms]
[OGL LOG][Proc: 0]: global_index_init: 0.03 [ms]
[OGL LOG][Proc: 0]p_local_coeffs: call_update: 0 [ms]
[OGL LOG][Proc: 0]p_non_local_coeffs: call_update: 0 [ms]
[OGL LOG][Proc: 0]p: update_local_matrix_data: 3.939 [ms]
[OGL LOG][Proc: 0]p: update_non_local_matrix_data: 0.072 [ms]
[OGL LOG][Proc: 0]p: regenerate_distributed_matrix: 12.93 [ms]
[OGL LOG][Proc: 0]p_matrix: call_update: 14.407 [ms]
[OGL LOG][Proc: 0]p_rhs: call_update: 0.202 [ms]
[OGL LOG][Preconditioner.H:346] Generate preconditioner Multigrid MaxLevels 9 MinCoarseRows 10 ZeroGuess 1 Cycle v
[OGL LOG][Proc: 0]p: init_precond: 318.488 [ms]
[OGL LOG][StoppingCriterion.H:237] Creating stopping criterion with minIter 27 frequency 1
[OGL LOG][Proc: 0]p: generate_solver: 0 [ms]
[OGL LOG][Proc: 0]p: solve: 599.116 [ms]
[OGL LOG][Proc: 0]p: copy_x_back: 0.324 [ms]
[OGL LOG][lduLduBase.H:330] 
Statistics:
	Time per iteration: 13024 [mu s]
	Time per residual norm calculation: 2445.000000 [mu s]
	Time per iteration and DOF: 13.024000 [ns]
	Retrieve results bandwidth 1.543000 [GByte/s]
[OGL LOG][Proc: 0]p: solve_multi_gpu: 944.485 [ms]
MultigridcudaGKOCG:  Solving for p, Initial residual = 0.0349246, Final residual = 9.84167e-05, No Iterations 46
[INFO] SolveP: 949.497 [ms]
time step continuity errors : sum local = 1.44232e-08, global = 6.35874e-21, cumulative = 2.23666e-20
[INFO] ContinuityError: 1.402 [ms]
[INFO] CorrectBoundary: 0.348 [ms]
[INFO] PISOStep: 975.188 [ms]
[INFO] MatrixAssemblyPI: 13.108 [ms]
[INFO] AdjustPhi: 0.549 [ms]
[INFO] ConstrainPressure: 0.002 [ms]
[INFO] MatrixAssemblyPII: 4.56 [ms]
[OGL LOG][Proc: 0]: global_index_init: 0.012 [ms]
[OGL LOG][Proc: 0]p_local_coeffs: call_update: 0 [ms]
[OGL LOG][Proc: 0]p_non_local_coeffs: call_update: 0 [ms]
[OGL LOG][Proc: 0]p: update_local_matrix_data: 3.999 [ms]
[OGL LOG][Proc: 0]p: update_non_local_matrix_data: 0.075 [ms]
[OGL LOG][Proc: 0]p: regenerate_distributed_matrix: 12.191 [ms]
[OGL LOG][Proc: 0]p_matrix: call_update: 13.882 [ms]
[OGL LOG][Proc: 0]p_rhs: call_update: 0.127 [ms]
[OGL LOG][Preconditioner.H:346] Generate preconditioner Multigrid MaxLevels 9 MinCoarseRows 10 ZeroGuess 1 Cycle v
[OGL LOG][Proc: 0]p: init_precond: 311.536 [ms]
[OGL LOG][StoppingCriterion.H:237] Creating stopping criterion with minIter 27 frequency 1
[OGL LOG][Proc: 0]p: generate_solver: 0.001 [ms]
[OGL LOG][Proc: 0]p: solve: 610.708 [ms]
[OGL LOG][Proc: 0]p: copy_x_back: 0.173 [ms]
[OGL LOG][lduLduBase.H:330] 
Statistics:
	Time per iteration: 13276 [mu s]
	Time per residual norm calculation: 2453.000000 [mu s]
	Time per iteration and DOF: 13.276000 [ns]
	Retrieve results bandwidth 2.890000 [GByte/s]
[OGL LOG][Proc: 0]p: solve_multi_gpu: 948.477 [ms]
MultigridcudaGKOCG:  Solving for p, Initial residual = 0.0296554, Final residual = 9.2284e-05, No Iterations 46
[INFO] SolveP: 953.398 [ms]
time step continuity errors : sum local = 1.30455e-08, global = -4.54303e-23, cumulative = 2.23212e-20
[INFO] ContinuityError: 2.344 [ms]
[INFO] CorrectBoundary: 0.061 [ms]
[INFO] PISOStep: 978.992 [ms]
[INFO] TimeStep: 2060.03 [ms]
ExecutionTime = 35.44 s  ClockTime = 38 s

Time = 0.006

Courant Number mean: 0.06312 max: 0.474156
[INFO] MatrixAssemblyU: 13.06 [ms]
DILUPBiCGStab:  Solving for Ux, Initial residual = 0.00729031, Final residual = 2.40946e-05, No Iterations 5
DILUPBiCGStab:  Solving for Uy, Initial residual = 0.0155872, Final residual = 3.93697e-05, No Iterations 5
DILUPBiCGStab:  Solving for Uz, Initial residual = 0.0312509, Final residual = 7.51657e-05, No Iterations 5
[INFO] MomentumPredictor: 91.662 [ms]
[INFO] MatrixAssemblyPI: 12.533 [ms]
[INFO] AdjustPhi: 0.572 [ms]
[INFO] ConstrainPressure: 0.002 [ms]
[INFO] MatrixAssemblyPII: 3.857 [ms]
[OGL LOG][Proc: 0]: global_index_init: 0.021 [ms]
[OGL LOG][Proc: 0]p_local_coeffs: call_update: 0 [ms]
[OGL LOG][Proc: 0]p_non_local_coeffs: call_update: 0 [ms]
[OGL LOG][Proc: 0]p: update_local_matrix_data: 3.901 [ms]
[OGL LOG][Proc: 0]p: update_non_local_matrix_data: 0.072 [ms]
[OGL LOG][Proc: 0]p: regenerate_distributed_matrix: 12.912 [ms]
[OGL LOG][Proc: 0]p_matrix: call_update: 14.227 [ms]
[OGL LOG][Proc: 0]p_rhs: call_update: 0.332 [ms]
[OGL LOG][Preconditioner.H:346] Generate preconditioner Multigrid MaxLevels 9 MinCoarseRows 10 ZeroGuess 1 Cycle v
[OGL LOG][Proc: 0]p: init_precond: 310.544 [ms]
[OGL LOG][StoppingCriterion.H:237] Creating stopping criterion with minIter 27 frequency 1
[OGL LOG][Proc: 0]p: generate_solver: 0.001 [ms]
[OGL LOG][Proc: 0]p: solve: 609.475 [ms]
[OGL LOG][Proc: 0]p: copy_x_back: 0.169 [ms]
[OGL LOG][lduLduBase.H:330] 
Statistics:
	Time per iteration: 13249 [mu s]
	Time per residual norm calculation: 2431.000000 [mu s]
	Time per iteration and DOF: 13.249000 [ns]
	Retrieve results bandwidth 2.958000 [GByte/s]
[OGL LOG][Proc: 0]p: solve_multi_gpu: 946.706 [ms]
MultigridcudaGKOCG:  Solving for p, Initial residual = 0.0248957, Final residual = 9.59199e-05, No Iterations 46
[INFO] SolveP: 951.555 [ms]
time step continuity errors : sum local = 1.54098e-08, global = 1.92836e-21, cumulative = 2.42496e-20
[INFO] ContinuityError: 2.598 [ms]
[INFO] CorrectBoundary: 0.704 [ms]
[INFO] PISOStep: 976.924 [ms]
[INFO] MatrixAssemblyPI: 12.219 [ms]
[INFO] AdjustPhi: 1.416 [ms]
[INFO] ConstrainPressure: 0.002 [ms]
[INFO] MatrixAssemblyPII: 3.838 [ms]
[OGL LOG][Proc: 0]: global_index_init: 0.011 [ms]
[OGL LOG][Proc: 0]p_local_coeffs: call_update: 0 [ms]
[OGL LOG][Proc: 0]p_non_local_coeffs: call_update: 0 [ms]
[OGL LOG][Proc: 0]p: update_local_matrix_data: 3.642 [ms]
[OGL LOG][Proc: 0]p: update_non_local_matrix_data: 0.037 [ms]
[OGL LOG][Proc: 0]p: regenerate_distributed_matrix: 11.958 [ms]
[OGL LOG][Proc: 0]p_matrix: call_update: 13.422 [ms]
[OGL LOG][Proc: 0]p_rhs: call_update: 0.126 [ms]
[OGL LOG][Preconditioner.H:346] Generate preconditioner Multigrid MaxLevels 9 MinCoarseRows 10 ZeroGuess 1 Cycle v
[OGL LOG][Proc: 0]p: init_precond: 319.426 [ms]
[OGL LOG][StoppingCriterion.H:237] Creating stopping criterion with minIter 27 frequency 1
[OGL LOG][Proc: 0]p: generate_solver: 0.001 [ms]
[OGL LOG][Proc: 0]p: solve: 586.249 [ms]
[OGL LOG][Proc: 0]p: copy_x_back: 0.17 [ms]
[OGL LOG][lduLduBase.H:330] 
Statistics:
	Time per iteration: 13027 [mu s]
	Time per residual norm calculation: 2452.000000 [mu s]
	Time per iteration and DOF: 13.027000 [ns]
	Retrieve results bandwidth 2.941000 [GByte/s]
[OGL LOG][Proc: 0]p: solve_multi_gpu: 931.923 [ms]
MultigridcudaGKOCG:  Solving for p, Initial residual = 0.0217157, Final residual = 9.47889e-05, No Iterations 45
[INFO] SolveP: 936.283 [ms]
time step continuity errors : sum local = 1.40165e-08, global = -5.57401e-21, cumulative = 1.86756e-20
[INFO] ContinuityError: 3.877 [ms]
[INFO] CorrectBoundary: 0.775 [ms]
[INFO] PISOStep: 964.025 [ms]
[INFO] TimeStep: 2048.81 [ms]
ExecutionTime = 37.49 s  ClockTime = 40 s

Time = 0.0065

Courant Number mean: 0.0648243 max: 0.474992
[INFO] MatrixAssemblyU: 12.552 [ms]
DILUPBiCGStab:  Solving for Ux, Initial residual = 0.00655794, Final residual = 2.09362e-05, No Iterations 5
DILUPBiCGStab:  Solving for Uy, Initial residual = 0.0140784, Final residual = 3.54098e-05, No Iterations 5
DILUPBiCGStab:  Solving for Uz, Initial residual = 0.0283237, Final residual = 7.24732e-05, No Iterations 5
[INFO] MomentumPredictor: 92.042 [ms]
[INFO] MatrixAssemblyPI: 12.585 [ms]
[INFO] AdjustPhi: 0.485 [ms]
[INFO] ConstrainPressure: 0.002 [ms]
[INFO] MatrixAssemblyPII: 3.7 [ms]
[OGL LOG][Proc: 0]: global_index_init: 0.04 [ms]
[OGL LOG][Proc: 0]p_local_coeffs: call_update: 0 [ms]
[OGL LOG][Proc: 0]p_non_local_coeffs: call_update: 0 [ms]
[OGL LOG][Proc: 0]p: update_local_matrix_data: 3.941 [ms]
[OGL LOG][Proc: 0]p: update_non_local_matrix_data: 0.058 [ms]
[OGL LOG][Proc: 0]p: regenerate_distributed_matrix: 12.441 [ms]
[OGL LOG][Proc: 0]p_matrix: call_update: 13.977 [ms]
[OGL LOG][Proc: 0]p_rhs: call_update: 0.273 [ms]
[OGL LOG][Preconditioner.H:346] Generate preconditioner Multigrid MaxLevels 9 MinCoarseRows 10 ZeroGuess 1 Cycle v
[OGL LOG][Proc: 0]p: init_precond: 311.27 [ms]
[OGL LOG][StoppingCriterion.H:237] Creating stopping criterion with minIter 27 frequency 1
[OGL LOG][Proc: 0]p: generate_solver: 0 [ms]
[OGL LOG][Proc: 0]p: solve: 608.999 [ms]
[OGL LOG][Proc: 0]p: copy_x_back: 0.183 [ms]
[OGL LOG][lduLduBase.H:330] 
Statistics:
	Time per iteration: 13239 [mu s]
	Time per residual norm calculation: 2444.000000 [mu s]
	Time per iteration and DOF: 13.239000 [ns]
	Retrieve results bandwidth 2.732000 [GByte/s]
[OGL LOG][Proc: 0]p: solve_multi_gpu: 946.666 [ms]
MultigridcudaGKOCG:  Solving for p, Initial residual = 0.0206698, Final residual = 9.04345e-05, No Iterations 46
[INFO] SolveP: 951.464 [ms]
time step continuity errors : sum local = 1.40183e-08, global = 1.26745e-21, cumulative = 1.9943e-20
[INFO] ContinuityError: 2.398 [ms]
[INFO] CorrectBoundary: 0.06 [ms]
[INFO] PISOStep: 976.479 [ms]
[INFO] MatrixAssemblyPI: 13.395 [ms]
[INFO] AdjustPhi: 1.373 [ms]
[INFO] ConstrainPressure: 0.002 [ms]
[INFO] MatrixAssemblyPII: 3.843 [ms]
[OGL LOG][Proc: 0]: global_index_init: 0.028 [ms]
[OGL LOG][Proc: 0]p_local_coeffs: call_update: 0 [ms]
[OGL LOG][Proc: 0]p_non_local_coeffs: call_update: 0 [ms]
[OGL LOG][Proc: 0]p: update_local_matrix_data: 3.961 [ms]
[OGL LOG][Proc: 0]p: update_non_local_matrix_data: 0.054 [ms]
[OGL LOG][Proc: 0]p: regenerate_distributed_matrix: 13.348 [ms]
[OGL LOG][Proc: 0]p_matrix: call_update: 14.817 [ms]
[OGL LOG][Proc: 0]p_rhs: call_update: 0.13 [ms]
[OGL LOG][Preconditioner.H:346] Generate preconditioner Multigrid MaxLevels 9 MinCoarseRows 10 ZeroGuess 1 Cycle v
[OGL LOG][Proc: 0]p: init_precond: 319.917 [ms]
[OGL LOG][StoppingCriterion.H:237] Creating stopping criterion with minIter 27 frequency 1
[OGL LOG][Proc: 0]p: generate_solver: 0 [ms]
[OGL LOG][Proc: 0]p: solve: 585.743 [ms]
[OGL LOG][Proc: 0]p: copy_x_back: 0.169 [ms]
[OGL LOG][lduLduBase.H:330] 
Statistics:
	Time per iteration: 13016 [mu s]
	Time per residual norm calculation: 2453.000000 [mu s]
	Time per iteration and DOF: 13.016000 [ns]
	Retrieve results bandwidth 2.958000 [GByte/s]
[OGL LOG][Proc: 0]p: solve_multi_gpu: 932.558 [ms]
MultigridcudaGKOCG:  Solving for p, Initial residual = 0.0181814, Final residual = 9.17801e-05, No Iterations 45
[INFO] SolveP: 937.342 [ms]
time step continuity errors : sum local = 1.30878e-08, global = -7.5067e-21, cumulative = 1.24363e-20
[INFO] ContinuityError: 2.722 [ms]
[INFO] CorrectBoundary: 0.092 [ms]
[INFO] PISOStep: 964.597 [ms]
[INFO] TimeStep: 2047.49 [ms]
ExecutionTime = 39.54 s  ClockTime = 42 s

Time = 0.007

Courant Number mean: 0.0663921 max: 0.475724
[INFO] MatrixAssemblyU: 12.895 [ms]
DILUPBiCGStab:  Solving for Ux, Initial residual = 0.00596705, Final residual = 1.86961e-05, No Iterations 5
DILUPBiCGStab:  Solving for Uy, Initial residual = 0.0127636, Final residual = 3.19426e-05, No Iterations 5
DILUPBiCGStab:  Solving for Uz, Initial residual = 0.0263476, Final residual = 6.90271e-05, No Iterations 5
[INFO] MomentumPredictor: 91.861 [ms]
[INFO] MatrixAssemblyPI: 12.68 [ms]
[INFO] AdjustPhi: 0.49 [ms]
[INFO] ConstrainPressure: 0.002 [ms]
[INFO] MatrixAssemblyPII: 3.841 [ms]
[OGL LOG][Proc: 0]: global_index_init: 0.036 [ms]
[OGL LOG][Proc: 0]p_local_coeffs: call_update: 0 [ms]
[OGL LOG][Proc: 0]p_non_local_coeffs: call_update: 0 [ms]
[OGL LOG][Proc: 0]p: update_local_matrix_data: 3.984 [ms]
[OGL LOG][Proc: 0]p: update_non_local_matrix_data: 0.053 [ms]
[OGL LOG][Proc: 0]p: regenerate_distributed_matrix: 12.841 [ms]
[OGL LOG][Proc: 0]p_matrix: call_update: 14.372 [ms]
[OGL LOG][Proc: 0]p_rhs: call_update: 0.097 [ms]
[OGL LOG][Preconditioner.H:346] Generate preconditioner Multigrid MaxLevels 9 MinCoarseRows 10 ZeroGuess 1 Cycle v
[OGL LOG][Proc: 0]p: init_precond: 314.163 [ms]
[OGL LOG][StoppingCriterion.H:237] Creating stopping criterion with minIter 27 frequency 1
[OGL LOG][Proc: 0]p: generate_solver: 0 [ms]
[OGL LOG][Proc: 0]p: solve: 1358.34 [ms]
[OGL LOG][Proc: 0]p: copy_x_back: 0.174 [ms]
[OGL LOG][lduLduBase.H:330] 
Statistics:
	Time per iteration: 13448 [mu s]
	Time per residual norm calculation: 2444.000000 [mu s]
	Time per iteration and DOF: 13.448000 [ns]
	Retrieve results bandwidth 2.873000 [GByte/s]
[OGL LOG][Proc: 0]p: solve_multi_gpu: 1699.23 [ms]
MultigridcudaGKOCG:  Solving for p, Initial residual = 0.0161295, Final residual = 9.82987e-05, No Iterations 101
[INFO] SolveP: 1704.33 [ms]
time step continuity errors : sum local = 1.3751e-08, global = 1.48505e-21, cumulative = 1.39214e-20
[INFO] ContinuityError: 2.243 [ms]
[INFO] CorrectBoundary: 0.47 [ms]
[INFO] PISOStep: 1730.03 [ms]
[INFO] MatrixAssemblyPI: 12.582 [ms]
[INFO] AdjustPhi: 0.827 [ms]
[INFO] ConstrainPressure: 0.002 [ms]
[INFO] MatrixAssemblyPII: 3.867 [ms]
[OGL LOG][Proc: 0]: global_index_init: 0.015 [ms]
[OGL LOG][Proc: 0]p_local_coeffs: call_update: 0 [ms]
[OGL LOG][Proc: 0]p_non_local_coeffs: call_update: 0 [ms]
[OGL LOG][Proc: 0]p: update_local_matrix_data: 4.031 [ms]
[OGL LOG][Proc: 0]p: update_non_local_matrix_data: 0.05 [ms]
[OGL LOG][Proc: 0]p: regenerate_distributed_matrix: 13.062 [ms]
[OGL LOG][Proc: 0]p_matrix: call_update: 14.414 [ms]
[OGL LOG][Proc: 0]p_rhs: call_update: 0.528 [ms]
[OGL LOG][Preconditioner.H:346] Generate preconditioner Multigrid MaxLevels 9 MinCoarseRows 10 ZeroGuess 1 Cycle v
[OGL LOG][Proc: 0]p: init_precond: 317.966 [ms]
[OGL LOG][StoppingCriterion.H:237] Creating stopping criterion with minIter 60 frequency 2
[OGL LOG][Proc: 0]p: generate_solver: 0 [ms]
[OGL LOG][Proc: 0]p: solve: 1223.1 [ms]
[OGL LOG][Proc: 0]p: copy_x_back: 0.19 [ms]
[OGL LOG][lduLduBase.H:330] 
Statistics:
	Time per iteration: 12109 [mu s]
	Time per residual norm calculation: 2447.000000 [mu s]
	Time per iteration and DOF: 12.109000 [ns]
	Retrieve results bandwidth 2.631000 [GByte/s]
[OGL LOG][Proc: 0]p: solve_multi_gpu: 1567.93 [ms]
MultigridcudaGKOCG:  Solving for p, Initial residual = 0.0145953, Final residual = 9.25728e-05, No Iterations 101
[INFO] SolveP: 1573.29 [ms]
time step continuity errors : sum local = 1.29568e-08, global = -1.30838e-21, cumulative = 1.2613e-20
[INFO] ContinuityError: 1.548 [ms]
[INFO] CorrectBoundary: 0.395 [ms]
[INFO] PISOStep: 1600.76 [ms]
[INFO] TimeStep: 3437.61 [ms]
ExecutionTime = 42.97 s  ClockTime = 46 s

Time = 0.0075

Courant Number mean: 0.0678393 max: 0.476364
[INFO] MatrixAssemblyU: 12.555 [ms]
DILUPBiCGStab:  Solving for Ux, Initial residual = 0.00544067, Final residual = 1.66804e-05, No Iterations 5
DILUPBiCGStab:  Solving for Uy, Initial residual = 0.0116768, Final residual = 2.89037e-05, No Iterations 5
DILUPBiCGStab:  Solving for Uz, Initial residual = 0.0235719, Final residual = 5.25411e-05, No Iterations 5
[INFO] MomentumPredictor: 91.839 [ms]
[INFO] MatrixAssemblyPI: 12.465 [ms]
[INFO] AdjustPhi: 0.888 [ms]
[INFO] ConstrainPressure: 0.002 [ms]
[INFO] MatrixAssemblyPII: 3.878 [ms]
[OGL LOG][Proc: 0]: global_index_init: 0.032 [ms]
[OGL LOG][Proc: 0]p_local_coeffs: call_update: 0 [ms]
[OGL LOG][Proc: 0]p_non_local_coeffs: call_update: 0 [ms]
[OGL LOG][Proc: 0]p: update_local_matrix_data: 3.972 [ms]
[OGL LOG][Proc: 0]p: update_non_local_matrix_data: 0.056 [ms]
[OGL LOG][Proc: 0]p: regenerate_distributed_matrix: 12.061 [ms]
[OGL LOG][Proc: 0]p_matrix: call_update: 13.358 [ms]
[OGL LOG][Proc: 0]p_rhs: call_update: 1.466 [ms]
[OGL LOG][Preconditioner.H:346] Generate preconditioner Multigrid MaxLevels 9 MinCoarseRows 10 ZeroGuess 1 Cycle v
[OGL LOG][Proc: 0]p: init_precond: 314.842 [ms]
[OGL LOG][StoppingCriterion.H:237] Creating stopping criterion with minIter 60 frequency 3
[OGL LOG][Proc: 0]p: generate_solver: 0 [ms]
[OGL LOG][Proc: 0]p: solve: 729.562 [ms]
[OGL LOG][Proc: 0]p: copy_x_back: 0.169 [ms]
[OGL LOG][lduLduBase.H:330] 
Statistics:
	Time per iteration: 11960 [mu s]
	Time per residual norm calculation: 2447.000000 [mu s]
	Time per iteration and DOF: 11.960000 [ns]
	Retrieve results bandwidth 2.958000 [GByte/s]
[OGL LOG][Proc: 0]p: solve_multi_gpu: 1071.23 [ms]
MultigridcudaGKOCG:  Solving for p, Initial residual = 0.0140836, Final residual = 8.84173e-05, No Iterations 61
[INFO] SolveP: 1076.11 [ms]
time step continuity errors : sum local = 1.29246e-08, global = -3.60997e-21, cumulative = 9.00301e-21
[INFO] ContinuityError: 1.429 [ms]
[INFO] CorrectBoundary: 0.067 [ms]
[INFO] PISOStep: 1100.1 [ms]
[INFO] MatrixAssemblyPI: 12.093 [ms]
[INFO] AdjustPhi: 2.001 [ms]
[INFO] ConstrainPressure: 0.002 [ms]
[INFO] MatrixAssemblyPII: 4.217 [ms]
[OGL LOG][Proc: 0]: global_index_init: 0.042 [ms]
[OGL LOG][Proc: 0]p_local_coeffs: call_update: 0 [ms]
[OGL LOG][Proc: 0]p_non_local_coeffs: call_update: 0 [ms]
[OGL LOG][Proc: 0]p: update_local_matrix_data: 4.011 [ms]
[OGL LOG][Proc: 0]p: update_non_local_matrix_data: 0.057 [ms]
[OGL LOG][Proc: 0]p: regenerate_distributed_matrix: 12.561 [ms]
[OGL LOG][Proc: 0]p_matrix: call_update: 14.215 [ms]
[OGL LOG][Proc: 0]p_rhs: call_update: 0.197 [ms]
[OGL LOG][Preconditioner.H:346] Generate preconditioner Multigrid MaxLevels 9 MinCoarseRows 10 ZeroGuess 1 Cycle v
[OGL LOG][Proc: 0]p: init_precond: 316.832 [ms]
[OGL LOG][StoppingCriterion.H:237] Creating stopping criterion with minIter 36 frequency 2
[OGL LOG][Proc: 0]p: generate_solver: 0 [ms]
[OGL LOG][Proc: 0]p: solve: 557.146 [ms]
[OGL LOG][Proc: 0]p: copy_x_back: 0.173 [ms]
[OGL LOG][lduLduBase.H:330] 
Statistics:
	Time per iteration: 12381 [mu s]
	Time per residual norm calculation: 2444.000000 [mu s]
	Time per iteration and DOF: 12.381000 [ns]
	Retrieve results bandwidth 2.890000 [GByte/s]
[OGL LOG][Proc: 0]p: solve_multi_gpu: 900.993 [ms]
MultigridcudaGKOCG:  Solving for p, Initial residual = 0.012847, Final residual = 7.17047e-05, No Iterations 45
[INFO] SolveP: 905.927 [ms]
time step continuity errors : sum local = 1.02645e-08, global = -5.12896e-21, cumulative = 3.87405e-21
[INFO] ContinuityError: 1.825 [ms]
[INFO] CorrectBoundary: 0.65 [ms]
[INFO] PISOStep: 933.975 [ms]
[INFO] TimeStep: 2142.44 [ms]
ExecutionTime = 45.1 s  ClockTime = 48 s

Time = 0.008

Courant Number mean: 0.0691767 max: 0.476936
[INFO] MatrixAssemblyU: 11.908 [ms]
DILUPBiCGStab:  Solving for Ux, Initial residual = 0.00499537, Final residual = 1.50923e-05, No Iterations 5
DILUPBiCGStab:  Solving for Uy, Initial residual = 0.0107139, Final residual = 2.64323e-05, No Iterations 5
DILUPBiCGStab:  Solving for Uz, Initial residual = 0.0219268, Final residual = 4.87118e-05, No Iterations 5
[INFO] MomentumPredictor: 92.968 [ms]
[INFO] MatrixAssemblyPI: 12.51 [ms]
[INFO] AdjustPhi: 0.663 [ms]
[INFO] ConstrainPressure: 0.001 [ms]
[INFO] MatrixAssemblyPII: 3.888 [ms]
[OGL LOG][Proc: 0]: global_index_init: 0.036 [ms]
[OGL LOG][Proc: 0]p_local_coeffs: call_update: 0 [ms]
[OGL LOG][Proc: 0]p_non_local_coeffs: call_update: 0 [ms]
[OGL LOG][Proc: 0]p: update_local_matrix_data: 3.981 [ms]
[OGL LOG][Proc: 0]p: update_non_local_matrix_data: 0.052 [ms]
[OGL LOG][Proc: 0]p: regenerate_distributed_matrix: 12.865 [ms]
[OGL LOG][Proc: 0]p_matrix: call_update: 14.295 [ms]
[OGL LOG][Proc: 0]p_rhs: call_update: 0.132 [ms]
[OGL LOG][Preconditioner.H:346] Generate preconditioner Multigrid MaxLevels 9 MinCoarseRows 10 ZeroGuess 1 Cycle v
[OGL LOG][Proc: 0]p: init_precond: 318.55 [ms]
[OGL LOG][StoppingCriterion.H:237] Creating stopping criterion with minIter 27 frequency 1
[OGL LOG][Proc: 0]p: generate_solver: 0 [ms]
[OGL LOG][Proc: 0]p: solve: 572.264 [ms]
[OGL LOG][Proc: 0]p: copy_x_back: 0.169 [ms]
[OGL LOG][lduLduBase.H:330] 
Statistics:
	Time per iteration: 13006 [mu s]
	Time per residual norm calculation: 2302.000000 [mu s]
	Time per iteration and DOF: 13.006000 [ns]
	Retrieve results bandwidth 2.958000 [GByte/s]
[OGL LOG][Proc: 0]p: solve_multi_gpu: 916.875 [ms]
MultigridcudaGKOCG:  Solving for p, Initial residual = 0.0117332, Final residual = 8.98597e-05, No Iterations 44
[INFO] SolveP: 921.879 [ms]
time step continuity errors : sum local = 1.35694e-08, global = 2.02804e-21, cumulative = 5.90209e-21
[INFO] ContinuityError: 2.659 [ms]
[INFO] CorrectBoundary: 0.068 [ms]
[INFO] PISOStep: 946.683 [ms]
[INFO] MatrixAssemblyPI: 11.05 [ms]
[INFO] AdjustPhi: 3.798 [ms]
[INFO] ConstrainPressure: 0.003 [ms]
[INFO] MatrixAssemblyPII: 3.914 [ms]
[OGL LOG][Proc: 0]: global_index_init: 0.007 [ms]
[OGL LOG][Proc: 0]p_local_coeffs: call_update: 0 [ms]
[OGL LOG][Proc: 0]p_non_local_coeffs: call_update: 0 [ms]
[OGL LOG][Proc: 0]p: update_local_matrix_data: 3.913 [ms]
[OGL LOG][Proc: 0]p: update_non_local_matrix_data: 0.059 [ms]
[OGL LOG][Proc: 0]p: regenerate_distributed_matrix: 11.238 [ms]
[OGL LOG][Proc: 0]p_matrix: call_update: 12.918 [ms]
[OGL LOG][Proc: 0]p_rhs: call_update: 0.1 [ms]
[OGL LOG][Preconditioner.H:346] Generate preconditioner Multigrid MaxLevels 9 MinCoarseRows 10 ZeroGuess 1 Cycle v
[OGL LOG][Proc: 0]p: init_precond: 318.098 [ms]
[OGL LOG][StoppingCriterion.H:237] Creating stopping criterion with minIter 26 frequency 1
[OGL LOG][Proc: 0]p: generate_solver: 0 [ms]
[OGL LOG][Proc: 0]p: solve: 574.444 [ms]
[OGL LOG][Proc: 0]p: copy_x_back: 0.168 [ms]
[OGL LOG][lduLduBase.H:330] 
Statistics:
	Time per iteration: 13055 [mu s]
	Time per residual norm calculation: 2301.000000 [mu s]
	Time per iteration and DOF: 13.055000 [ns]
	Retrieve results bandwidth 2.976000 [GByte/s]
[OGL LOG][Proc: 0]p: solve_multi_gpu: 917.248 [ms]
MultigridcudaGKOCG:  Solving for p, Initial residual = 0.0108898, Final residual = 8.10873e-05, No Iterations 44
[INFO] SolveP: 922.126 [ms]
time step continuity errors : sum local = 1.15749e-08, global = -2.19407e-21, cumulative = 3.70802e-21
[INFO] ContinuityError: 1.912 [ms]
[INFO] CorrectBoundary: 0.113 [ms]
[INFO] PISOStep: 950.676 [ms]
[INFO] TimeStep: 2005.52 [ms]
ExecutionTime = 47.11 s  ClockTime = 50 s

Time = 0.0085

Courant Number mean: 0.0704223 max: 0.477442
[INFO] MatrixAssemblyU: 12.479 [ms]
DILUPBiCGStab:  Solving for Ux, Initial residual = 0.00459831, Final residual = 1.36671e-05, No Iterations 5
DILUPBiCGStab:  Solving for Uy, Initial residual = 0.00990326, Final residual = 2.43072e-05, No Iterations 5
DILUPBiCGStab:  Solving for Uz, Initial residual = 0.0202211, Final residual = 4.77116e-05, No Iterations 5
[INFO] MomentumPredictor: 91.933 [ms]
[INFO] MatrixAssemblyPI: 12.555 [ms]
[INFO] AdjustPhi: 0.483 [ms]
[INFO] ConstrainPressure: 0.002 [ms]
[INFO] MatrixAssemblyPII: 3.861 [ms]
[OGL LOG][Proc: 0]: global_index_init: 0.024 [ms]
[OGL LOG][Proc: 0]p_local_coeffs: call_update: 0 [ms]
[OGL LOG][Proc: 0]p_non_local_coeffs: call_update: 0 [ms]
[OGL LOG][Proc: 0]p: update_local_matrix_data: 3.967 [ms]
[OGL LOG][Proc: 0]p: update_non_local_matrix_data: 0.059 [ms]
[OGL LOG][Proc: 0]p: regenerate_distributed_matrix: 13.091 [ms]
[OGL LOG][Proc: 0]p_matrix: call_update: 14.646 [ms]
[OGL LOG][Proc: 0]p_rhs: call_update: 0.095 [ms]
[OGL LOG][Preconditioner.H:346] Generate preconditioner Multigrid MaxLevels 9 MinCoarseRows 10 ZeroGuess 1 Cycle v
[OGL LOG][Proc: 0]p: init_precond: 318.386 [ms]
[OGL LOG][StoppingCriterion.H:237] Creating stopping criterion with minIter 26 frequency 1
[OGL LOG][Proc: 0]p: generate_solver: 0 [ms]
[OGL LOG][Proc: 0]p: solve: 575.852 [ms]
[OGL LOG][Proc: 0]p: copy_x_back: 0.177 [ms]
[OGL LOG][lduLduBase.H:330] 
Statistics:
	Time per iteration: 13087 [mu s]
	Time per residual norm calculation: 2373.000000 [mu s]
	Time per iteration and DOF: 13.087000 [ns]
	Retrieve results bandwidth 2.824000 [GByte/s]
[OGL LOG][Proc: 0]p: solve_multi_gpu: 920.823 [ms]
MultigridcudaGKOCG:  Solving for p, Initial residual = 0.010676, Final residual = 9.12258e-05, No Iterations 44
[INFO] SolveP: 925.89 [ms]
time step continuity errors : sum local = 1.38046e-08, global = -7.86731e-21, cumulative = -4.1593e-21
[INFO] ContinuityError: 2.925 [ms]
[INFO] CorrectBoundary: 0.593 [ms]
[INFO] PISOStep: 951.451 [ms]
[INFO] MatrixAssemblyPI: 11.939 [ms]
[INFO] AdjustPhi: 2.182 [ms]
[INFO] ConstrainPressure: 0.002 [ms]
[INFO] MatrixAssemblyPII: 3.811 [ms]
[OGL LOG][Proc: 0]: global_index_init: 0.008 [ms]
[OGL LOG][Proc: 0]p_local_coeffs: call_update: 0 [ms]
[OGL LOG][Proc: 0]p_non_local_coeffs: call_update: 0 [ms]
[OGL LOG][Proc: 0]p: update_local_matrix_data: 3.847 [ms]
[OGL LOG][Proc: 0]p: update_non_local_matrix_data: 0.042 [ms]
[OGL LOG][Proc: 0]p: regenerate_distributed_matrix: 11.182 [ms]
[OGL LOG][Proc: 0]p_matrix: call_update: 12.991 [ms]
[OGL LOG][Proc: 0]p_rhs: call_update: 0.086 [ms]
[OGL LOG][Preconditioner.H:346] Generate preconditioner Multigrid MaxLevels 9 MinCoarseRows 10 ZeroGuess 1 Cycle v
[OGL LOG][Proc: 0]p: init_precond: 315.051 [ms]
[OGL LOG][StoppingCriterion.H:237] Creating stopping criterion with minIter 26 frequency 1
[OGL LOG][Proc: 0]p: generate_solver: 0.001 [ms]
[OGL LOG][Proc: 0]p: solve: 582.413 [ms]
[OGL LOG][Proc: 0]p: copy_x_back: 0.187 [ms]
[OGL LOG][lduLduBase.H:330] 
Statistics:
	Time per iteration: 13236 [mu s]
	Time per residual norm calculation: 2300.000000 [mu s]
	Time per iteration and DOF: 13.236000 [ns]
	Retrieve results bandwidth 2.673000 [GByte/s]
[OGL LOG][Proc: 0]p: solve_multi_gpu: 922.41 [ms]
MultigridcudaGKOCG:  Solving for p, Initial residual = 0.00997254, Final residual = 8.06892e-05, No Iterations 44
[INFO] SolveP: 927.418 [ms]
time step continuity errors : sum local = 1.16363e-08, global = 7.66047e-21, cumulative = 3.50117e-21
[INFO] ContinuityError: 2.525 [ms]
[INFO] CorrectBoundary: 0.357 [ms]
[INFO] PISOStep: 953.77 [ms]
[INFO] TimeStep: 2012.5 [ms]
ExecutionTime = 49.12 s  ClockTime = 52 s

Time = 0.009

Courant Number mean: 0.0715856 max: 0.4779
[INFO] MatrixAssemblyU: 12.871 [ms]
DILUPBiCGStab:  Solving for Ux, Initial residual = 0.00426046, Final residual = 1.24927e-05, No Iterations 5
DILUPBiCGStab:  Solving for Uy, Initial residual = 0.00916629, Final residual = 2.25898e-05, No Iterations 5
DILUPBiCGStab:  Solving for Uz, Initial residual = 0.019078, Final residual = 4.61996e-05, No Iterations 5
[INFO] MomentumPredictor: 90.967 [ms]
[INFO] MatrixAssemblyPI: 12.787 [ms]
[INFO] AdjustPhi: 0.503 [ms]
[INFO] ConstrainPressure: 0.002 [ms]
[INFO] MatrixAssemblyPII: 3.813 [ms]
[OGL LOG][Proc: 0]: global_index_init: 0.022 [ms]
[OGL LOG][Proc: 0]p_local_coeffs: call_update: 0 [ms]
[OGL LOG][Proc: 0]p_non_local_coeffs: call_update: 0 [ms]
[OGL LOG][Proc: 0]p: update_local_matrix_data: 3.953 [ms]
[OGL LOG][Proc: 0]p: update_non_local_matrix_data: 0.057 [ms]
[OGL LOG][Proc: 0]p: regenerate_distributed_matrix: 13.286 [ms]
[OGL LOG][Proc: 0]p_matrix: call_update: 14.715 [ms]
[OGL LOG][Proc: 0]p_rhs: call_update: 0.096 [ms]
[OGL LOG][Preconditioner.H:346] Generate preconditioner Multigrid MaxLevels 9 MinCoarseRows 10 ZeroGuess 1 Cycle v
[OGL LOG][Proc: 0]p: init_precond: 320.171 [ms]
[OGL LOG][StoppingCriterion.H:237] Creating stopping criterion with minIter 26 frequency 1
[OGL LOG][Proc: 0]p: generate_solver: 0 [ms]
[OGL LOG][Proc: 0]p: solve: 575.997 [ms]
[OGL LOG][Proc: 0]p: copy_x_back: 0.281 [ms]
[OGL LOG][lduLduBase.H:330] 
Statistics:
	Time per iteration: 13090 [mu s]
	Time per residual norm calculation: 2445.000000 [mu s]
	Time per iteration and DOF: 13.090000 [ns]
	Retrieve results bandwidth 1.779000 [GByte/s]
[OGL LOG][Proc: 0]p: solve_multi_gpu: 923.49 [ms]
MultigridcudaGKOCG:  Solving for p, Initial residual = 0.00951183, Final residual = 8.99218e-05, No Iterations 44
[INFO] SolveP: 928.596 [ms]
time step continuity errors : sum local = 1.42321e-08, global = 2.79721e-21, cumulative = 6.29839e-21
[INFO] ContinuityError: 1.407 [ms]
[INFO] CorrectBoundary: 0.079 [ms]
[INFO] PISOStep: 954.527 [ms]
[INFO] MatrixAssemblyPI: 13.257 [ms]
[INFO] AdjustPhi: 0.565 [ms]
[INFO] ConstrainPressure: 0.002 [ms]
[INFO] MatrixAssemblyPII: 4.191 [ms]
[OGL LOG][Proc: 0]: global_index_init: 0.022 [ms]
[OGL LOG][Proc: 0]p_local_coeffs: call_update: 0 [ms]
[OGL LOG][Proc: 0]p_non_local_coeffs: call_update: 0 [ms]
[OGL LOG][Proc: 0]p: update_local_matrix_data: 4.114 [ms]
[OGL LOG][Proc: 0]p: update_non_local_matrix_data: 0.056 [ms]
[OGL LOG][Proc: 0]p: regenerate_distributed_matrix: 11.915 [ms]
[OGL LOG][Proc: 0]p_matrix: call_update: 13.568 [ms]
[OGL LOG][Proc: 0]p_rhs: call_update: 0.087 [ms]
[OGL LOG][Preconditioner.H:346] Generate preconditioner Multigrid MaxLevels 9 MinCoarseRows 10 ZeroGuess 1 Cycle v
[OGL LOG][Proc: 0]p: init_precond: 316.196 [ms]
[OGL LOG][StoppingCriterion.H:237] Creating stopping criterion with minIter 26 frequency 1
[OGL LOG][Proc: 0]p: generate_solver: 0 [ms]
[OGL LOG][Proc: 0]p: solve: 565.319 [ms]
[OGL LOG][Proc: 0]p: copy_x_back: 0.154 [ms]
[OGL LOG][lduLduBase.H:330] 
Statistics:
	Time per iteration: 13146 [mu s]
	Time per residual norm calculation: 2595.000000 [mu s]
	Time per iteration and DOF: 13.146000 [ns]
	Retrieve results bandwidth 3.246000 [GByte/s]
[OGL LOG][Proc: 0]p: solve_multi_gpu: 907.261 [ms]
MultigridcudaGKOCG:  Solving for p, Initial residual = 0.00896243, Final residual = 9.71918e-05, No Iterations 43
[INFO] SolveP: 912.214 [ms]
time step continuity errors : sum local = 1.40473e-08, global = -8.66601e-21, cumulative = -2.36762e-21
[INFO] ContinuityError: 2.367 [ms]
[INFO] CorrectBoundary: 0.341 [ms]
[INFO] PISOStep: 938.845 [ms]
[INFO] TimeStep: 1999.31 [ms]
ExecutionTime = 51.12 s  ClockTime = 54 s

Time = 0.0095

Courant Number mean: 0.0726727 max: 0.478315
[INFO] MatrixAssemblyU: 12.69 [ms]
DILUPBiCGStab:  Solving for Ux, Initial residual = 0.00394997, Final residual = 1.14725e-05, No Iterations 5
DILUPBiCGStab:  Solving for Uy, Initial residual = 0.00853926, Final residual = 2.10099e-05, No Iterations 5
DILUPBiCGStab:  Solving for Uz, Initial residual = 0.0176849, Final residual = 4.74695e-05, No Iterations 5
[INFO] MomentumPredictor: 91.666 [ms]
[INFO] MatrixAssemblyPI: 12.66 [ms]
[INFO] AdjustPhi: 0.584 [ms]
[INFO] ConstrainPressure: 0.002 [ms]
[INFO] MatrixAssemblyPII: 3.88 [ms]
[OGL LOG][Proc: 0]: global_index_init: 0.019 [ms]
[OGL LOG][Proc: 0]p_local_coeffs: call_update: 0 [ms]
[OGL LOG][Proc: 0]p_non_local_coeffs: call_update: 0 [ms]
[OGL LOG][Proc: 0]p: update_local_matrix_data: 3.945 [ms]
[OGL LOG][Proc: 0]p: update_non_local_matrix_data: 0.06 [ms]
[OGL LOG][Proc: 0]p: regenerate_distributed_matrix: 12.549 [ms]
[OGL LOG][Proc: 0]p_matrix: call_update: 14.094 [ms]
[OGL LOG][Proc: 0]p_rhs: call_update: 0.148 [ms]
[OGL LOG][Preconditioner.H:346] Generate preconditioner Multigrid MaxLevels 9 MinCoarseRows 10 ZeroGuess 1 Cycle v
[OGL LOG][Proc: 0]p: init_precond: 317.24 [ms]
[OGL LOG][StoppingCriterion.H:237] Creating stopping criterion with minIter 25 frequency 1
[OGL LOG][Proc: 0]p: generate_solver: 0.001 [ms]
[OGL LOG][Proc: 0]p: solve: 580.218 [ms]
[OGL LOG][Proc: 0]p: copy_x_back: 0.188 [ms]
[OGL LOG][lduLduBase.H:330] 
Statistics:
	Time per iteration: 13186 [mu s]
	Time per residual norm calculation: 2435.000000 [mu s]
	Time per iteration and DOF: 13.186000 [ns]
	Retrieve results bandwidth 2.659000 [GByte/s]
[OGL LOG][Proc: 0]p: solve_multi_gpu: 923.945 [ms]
MultigridcudaGKOCG:  Solving for p, Initial residual = 0.00881022, Final residual = 9.48802e-05, No Iterations 44
[INFO] SolveP: 928.673 [ms]
time step continuity errors : sum local = 1.51351e-08, global = 9.29751e-22, cumulative = -1.43787e-21
[INFO] ContinuityError: 1.519 [ms]
[INFO] CorrectBoundary: 0.106 [ms]
[INFO] PISOStep: 952.949 [ms]
[INFO] MatrixAssemblyPI: 12.097 [ms]
[INFO] AdjustPhi: 0.48 [ms]
[INFO] ConstrainPressure: 0.002 [ms]
[INFO] MatrixAssemblyPII: 3.886 [ms]
[OGL LOG][Proc: 0]: global_index_init: 0.02 [ms]
[OGL LOG][Proc: 0]p_local_coeffs: call_update: 0 [ms]
[OGL LOG][Proc: 0]p_non_local_coeffs: call_update: 0 [ms]
[OGL LOG][Proc: 0]p: update_local_matrix_data: 3.824 [ms]
[OGL LOG][Proc: 0]p: update_non_local_matrix_data: 0.037 [ms]
[OGL LOG][Proc: 0]p: regenerate_distributed_matrix: 10.061 [ms]
[OGL LOG][Proc: 0]p_matrix: call_update: 11.68 [ms]
[OGL LOG][Proc: 0]p_rhs: call_update: 0.103 [ms]
[OGL LOG][Preconditioner.H:346] Generate preconditioner Multigrid MaxLevels 9 MinCoarseRows 10 ZeroGuess 1 Cycle v
[OGL LOG][Proc: 0]p: init_precond: 315.151 [ms]
[OGL LOG][StoppingCriterion.H:237] Creating stopping criterion with minIter 26 frequency 1
[OGL LOG][Proc: 0]p: generate_solver: 0 [ms]
[OGL LOG][Proc: 0]p: solve: 565.21 [ms]
[OGL LOG][Proc: 0]p: copy_x_back: 0.162 [ms]
[OGL LOG][lduLduBase.H:330] 
Statistics:
	Time per iteration: 13144 [mu s]
	Time per residual norm calculation: 2452.000000 [mu s]
	Time per iteration and DOF: 13.144000 [ns]
	Retrieve results bandwidth 3.086000 [GByte/s]
[OGL LOG][Proc: 0]p: solve_multi_gpu: 904.954 [ms]
MultigridcudaGKOCG:  Solving for p, Initial residual = 0.00833022, Final residual = 9.74081e-05, No Iterations 43
[INFO] SolveP: 909.637 [ms]
time step continuity errors : sum local = 1.41936e-08, global = -1.4151e-21, cumulative = -2.85297e-21
[INFO] ContinuityError: 2.499 [ms]
[INFO] CorrectBoundary: 0.465 [ms]
[INFO] PISOStep: 934.797 [ms]
[INFO] TimeStep: 1993.91 [ms]
ExecutionTime = 53.11 s  ClockTime = 56 s

Time = 0.01

Courant Number mean: 0.0736902 max: 0.478691
[INFO] MatrixAssemblyU: 12.731 [ms]
DILUPBiCGStab:  Solving for Ux, Initial residual = 0.00368723, Final residual = 1.05701e-05, No Iterations 5
DILUPBiCGStab:  Solving for Uy, Initial residual = 0.00794884, Final residual = 1.9729e-05, No Iterations 5
DILUPBiCGStab:  Solving for Uz, Initial residual = 0.0169618, Final residual = 4.88104e-05, No Iterations 5
[INFO] MomentumPredictor: 91.307 [ms]
[INFO] MatrixAssemblyPI: 12.517 [ms]
[INFO] AdjustPhi: 0.488 [ms]
[INFO] ConstrainPressure: 0.001 [ms]
[INFO] MatrixAssemblyPII: 3.889 [ms]
[OGL LOG][Proc: 0]: global_index_init: 0.036 [ms]
[OGL LOG][Proc: 0]p_local_coeffs: call_update: 0 [ms]
[OGL LOG][Proc: 0]p_non_local_coeffs: call_update: 0 [ms]
[OGL LOG][Proc: 0]p: update_local_matrix_data: 3.976 [ms]
[OGL LOG][Proc: 0]p: update_non_local_matrix_data: 0.061 [ms]
[OGL LOG][Proc: 0]p: regenerate_distributed_matrix: 12.647 [ms]
[OGL LOG][Proc: 0]p_matrix: call_update: 14.146 [ms]
[OGL LOG][Proc: 0]p_rhs: call_update: 0.083 [ms]
[OGL LOG][Preconditioner.H:346] Generate preconditioner Multigrid MaxLevels 9 MinCoarseRows 10 ZeroGuess 1 Cycle v
[OGL LOG][Proc: 0]p: init_precond: 318.37 [ms]
[OGL LOG][StoppingCriterion.H:237] Creating stopping criterion with minIter 25 frequency 1
[OGL LOG][Proc: 0]p: generate_solver: 0.001 [ms]
[OGL LOG][Proc: 0]p: solve: 1342.5 [ms]
[OGL LOG][Proc: 0]p: copy_x_back: 0.198 [ms]
[OGL LOG][lduLduBase.H:330] 
Statistics:
	Time per iteration: 13425 [mu s]
	Time per residual norm calculation: 1706.000000 [mu s]
	Time per iteration and DOF: 13.425000 [ns]
	Retrieve results bandwidth 2.525000 [GByte/s]
[OGL LOG][Proc: 0]p: solve_multi_gpu: 1686.07 [ms]
MultigridcudaGKOCG:  Solving for p, Initial residual = 0.00818262, Final residual = 8.40853e-05, No Iterations 100
[INFO] SolveP: 1692.58 [ms]
time step continuity errors : sum local = 1.17631e-08, global = -8.51345e-21, cumulative = -1.13664e-20
[INFO] ContinuityError: 2.948 [ms]
[INFO] CorrectBoundary: 0.279 [ms]
[INFO] PISOStep: 1717.97 [ms]
[INFO] MatrixAssemblyPI: 11.769 [ms]
[INFO] AdjustPhi: 2.351 [ms]
[INFO] ConstrainPressure: 0.002 [ms]
[INFO] MatrixAssemblyPII: 3.867 [ms]
[OGL LOG][Proc: 0]: global_index_init: 0.025 [ms]
[OGL LOG][Proc: 0]p_local_coeffs: call_update: 0 [ms]
[OGL LOG][Proc: 0]p_non_local_coeffs: call_update: 0 [ms]
[OGL LOG][Proc: 0]p: update_local_matrix_data: 3.915 [ms]
[OGL LOG][Proc: 0]p: update_non_local_matrix_data: 0.048 [ms]
[OGL LOG][Proc: 0]p: regenerate_distributed_matrix: 12.636 [ms]
[OGL LOG][Proc: 0]p_matrix: call_update: 14.407 [ms]
[OGL LOG][Proc: 0]p_rhs: call_update: 0.458 [ms]
[OGL LOG][Preconditioner.H:346] Generate preconditioner Multigrid MaxLevels 9 MinCoarseRows 10 ZeroGuess 1 Cycle v
[OGL LOG][Proc: 0]p: init_precond: 317.758 [ms]
[OGL LOG][StoppingCriterion.H:237] Creating stopping criterion with minIter 60 frequency 2
[OGL LOG][Proc: 0]p: generate_solver: 0 [ms]
[OGL LOG][Proc: 0]p: solve: 1202.17 [ms]
[OGL LOG][Proc: 0]p: copy_x_back: 0.172 [ms]
[OGL LOG][lduLduBase.H:330] 
Statistics:
	Time per iteration: 12143 [mu s]
	Time per residual norm calculation: 2437.000000 [mu s]
	Time per iteration and DOF: 12.143000 [ns]
	Retrieve results bandwidth 2.906000 [GByte/s]
[OGL LOG][Proc: 0]p: solve_multi_gpu: 1547.04 [ms]
MultigridcudaGKOCG:  Solving for p, Initial residual = 0.00775936, Final residual = 9.86923e-05, No Iterations 99
[INFO] SolveP: 1551.74 [ms]
time step continuity errors : sum local = 1.38102e-08, global = 3.82118e-21, cumulative = -7.54524e-21
[INFO] ContinuityError: 2.93 [ms]
[INFO] CorrectBoundary: 0.894 [ms]
[INFO] PISOStep: 1578.94 [ms]
[INFO] TimeStep: 3402.76 [ms]
ExecutionTime = 56.51 s  ClockTime = 59 s

End

Finalising parallel run
