/*---------------------------------------------------------------------------*\
| =========                 |                                                 |
| \\      /  F ield         | OpenFOAM: The Open Source CFD Toolbox           |
|  \\    /   O peration     | Version:  2306                                  |
|   \\  /    A nd           | Website:  www.openfoam.com                      |
|    \\/     M anipulation  |                                                 |
\*---------------------------------------------------------------------------*/
Build  : a6e826bd55-20230630 OPENFOAM=2306 version=v2306
Arch   : "LSB;label=32;scalar=64"
Exec   : simpleFoam -parallel -case /home/greole/data/code/exasim_project/micro_benchmarks/WindsorBody/workspace/1c837448dbf36c3a51c881ac32811dc8/case
Date   : Aug 11 2023
Time   : 18:20:59
Host   : nla-gpu2.ianm.kit.edu
PID    : 2478286
I/O    : uncollated
Case   : /home/greole/data/code/exasim_project/micro_benchmarks/WindsorBody/workspace/1c837448dbf36c3a51c881ac32811dc8/case
nProcs : 8
Hosts  :
(
    (nla-gpu2.ianm.kit.edu 8)
)
Pstream initialized with:
    floatTransfer      : false
    nProcsSimpleSum    : 0
    nonBlockingExchange: 0 (tuning: 0)
    exchange algorithm : -1
    commsType          : nonBlocking
    polling iterations : 0
trapFpe: Floating point exception trapping enabled (FOAM_SIGFPE).
fileModificationChecking : Monitoring run-time modified files using timeStampMaster (fileModificationSkew 5, maxFileModificationPolls 20)
allowSystemOperations : Allowing user-supplied system call operations

// * * * * * * * * * * * * * * * * * * * * * * * * * * * * * * * * * * * * * //
Create time

--> FOAM Warning : 
    From void* Foam::dlLibraryTable::openLibrary(const Foam::fileName&, bool)
    in file db/dynamicLibrary/dlLibraryTable/dlLibraryTable.C at line 188
    Could not load "libpetscFoam.so"
libpetscFoam.so: cannot open shared object file: No such file or directory
Create mesh for time = 0


SIMPLE: convergence criteria
    field p	 tolerance 1e-08
    field U	 tolerance 1e-08
    field k	 tolerance 1e-08
    field omega	 tolerance 1e-08
    field nuTilda	 tolerance 1e-08

Reading field p

Reading field U

Reading/calculating face flux field phi

Selecting incompressible transport model Newtonian
Selecting turbulence model type RAS
Selecting RAS turbulence model SpalartAllmaras
Selecting patchDistMethod meshWave
ft2 term: inactive
RAS
{
    RASModel        SpalartAllmaras;
    turbulence      on;
    printCoeffs     on;
    sigmaNut        0.66666;
    kappa           0.41;
    Cb1             0.1355;
    Cb2             0.622;
    Cw2             0.3;
    Cw3             2;
    Cv1             7.1;
    Cs              0.3;
    ck              0.07000000000000001;
    ft2             false;
    Ct3             1.2;
    Ct4             0.5;
}

No MRF models present

Creating finite volume options from "system/fvOptions"

Selecting finite volume options type velocityDampingConstraint
    Source: velocityDamping
    - selecting all cells
    - selected 6307136 cell(s) with volume 27.82583051606852

Starting time loop

--> FOAM Warning : 
    From bool Foam::functionObjectList::read()
    in file db/functionObjects/functionObjectList/functionObjectList.C at line 1035
    Reading "system/controlDict" at line 2 to 41
    Entry 'lref' is not a dictionary
--> FOAM Warning : 
    From bool Foam::functionObjectList::read()
    in file db/functionObjects/functionObjectList/functionObjectList.C at line 1035
    Reading "system/controlDict" at line 2 to 41
    Entry 'Aref' is not a dictionary
--> FOAM Warning : 
    From bool Foam::functionObjectList::read()
    in file db/functionObjects/functionObjectList/functionObjectList.C at line 1035
    Reading "system/controlDict" at line 2 to 41
    Entry 'yawAngle' is not a dictionary
--> FOAM Warning : 
    From bool Foam::functionObjectList::read()
    in file db/functionObjects/functionObjectList/functionObjectList.C at line 1035
    Reading "system/controlDict" at line 2 to 41
    Entry 'lDomain' is not a dictionary
--> FOAM Warning : 
    From bool Foam::functionObjectList::read()
    in file db/functionObjects/functionObjectList/functionObjectList.C at line 1035
    Reading "system/controlDict" at line 2 to 41
    Entry 'bDomain' is not a dictionary
--> FOAM Warning : 
    From bool Foam::functionObjectList::read()
    in file db/functionObjects/functionObjectList/functionObjectList.C at line 1035
    Reading "system/controlDict" at line 2 to 41
    Entry 'hDomain' is not a dictionary
--> FOAM Warning : 
    From bool Foam::functionObjectList::read()
    in file db/functionObjects/functionObjectList/functionObjectList.C at line 1035
    Reading "system/controlDict" at line 2 to 41
    Entry 'xCenter' is not a dictionary
--> FOAM Warning : 
    From bool Foam::functionObjectList::read()
    in file db/functionObjects/functionObjectList/functionObjectList.C at line 1035
    Reading "system/controlDict" at line 2 to 41
    Entry 'yCenter' is not a dictionary
--> FOAM Warning : 
    From bool Foam::functionObjectList::read()
    in file db/functionObjects/functionObjectList/functionObjectList.C at line 1035
    Reading "system/controlDict" at line 2 to 41
    Entry 'zCenter' is not a dictionary
--> FOAM Warning : 
    From bool Foam::functionObjectList::read()
    in file db/functionObjects/functionObjectList/functionObjectList.C at line 1035
    Reading "system/controlDict" at line 2 to 41
    Entry 'inletPatch' is not a dictionary
--> FOAM Warning : 
    From bool Foam::functionObjectList::read()
    in file db/functionObjects/functionObjectList/functionObjectList.C at line 1035
    Reading "system/controlDict" at line 2 to 41
    Entry 'outletPatch' is not a dictionary
--> FOAM Warning : 
    From bool Foam::functionObjectList::read()
    in file db/functionObjects/functionObjectList/functionObjectList.C at line 1035
    Reading "system/controlDict" at line 2 to 41
    Entry 'wallPatches' is not a dictionary
--> FOAM Warning : 
    From bool Foam::functionObjectList::read()
    in file db/functionObjects/functionObjectList/functionObjectList.C at line 1035
    Reading "system/controlDict" at line 2 to 41
    Entry 'forcesWallPatches' is not a dictionary
--> FOAM Warning : 
    From bool Foam::functionObjectList::read()
    in file db/functionObjects/functionObjectList/functionObjectList.C at line 1035
    Reading "system/controlDict" at line 2 to 41
    Entry 'symmPatches' is not a dictionary
--> FOAM Warning : 
    From bool Foam::functionObjectList::read()
    in file db/functionObjects/functionObjectList/functionObjectList.C at line 1035
    Reading "system/controlDict" at line 2 to 41
    Entry 'Uinf' is not a dictionary
--> FOAM Warning : 
    From bool Foam::functionObjectList::read()
    in file db/functionObjects/functionObjectList/functionObjectList.C at line 1035
    Reading "system/controlDict" at line 2 to 41
    Entry 'UinfMag' is not a dictionary
--> FOAM Warning : 
    From bool Foam::functionObjectList::read()
    in file db/functionObjects/functionObjectList/functionObjectList.C at line 1035
    Reading "system/controlDict" at line 2 to 41
    Entry 'nu' is not a dictionary
--> FOAM Warning : 
    From bool Foam::functionObjectList::read()
    in file db/functionObjects/functionObjectList/functionObjectList.C at line 1035
    Reading "system/controlDict" at line 2 to 41
    Entry 'pref' is not a dictionary
--> FOAM Warning : 
    From bool Foam::functionObjectList::read()
    in file db/functionObjects/functionObjectList/functionObjectList.C at line 1035
    Reading "system/controlDict" at line 2 to 41
    Entry 'viscRatio' is not a dictionary
--> FOAM Warning : 
    From bool Foam::functionObjectList::read()
    in file db/functionObjects/functionObjectList/functionObjectList.C at line 1035
    Reading "system/controlDict" at line 2 to 41
    Entry 'Tu' is not a dictionary
--> FOAM Warning : 
    From bool Foam::functionObjectList::read()
    in file db/functionObjects/functionObjectList/functionObjectList.C at line 1035
    Reading "system/controlDict" at line 2 to 41
    Entry 'LESturbModel' is not a dictionary
--> FOAM Warning : 
    From bool Foam::functionObjectList::read()
    in file db/functionObjects/functionObjectList/functionObjectList.C at line 1035
    Reading "system/controlDict" at line 2 to 41
    Entry 'RASturbModel' is not a dictionary
--> FOAM Warning : 
    From bool Foam::functionObjectList::read()
    in file db/functionObjects/functionObjectList/functionObjectList.C at line 1035
    Reading "system/controlDict" at line 2 to 41
    Entry 'deltaTurb' is not a dictionary
--> FOAM Warning : 
    From bool Foam::functionObjectList::read()
    in file db/functionObjects/functionObjectList/functionObjectList.C at line 1035
    Reading "system/controlDict" at line 2 to 41
    Entry 'dt' is not a dictionary
--> FOAM Warning : 
    From bool Foam::functionObjectList::read()
    in file db/functionObjects/functionObjectList/functionObjectList.C at line 1035
    Reading "system/controlDict" at line 2 to 41
    Entry 'tAvg' is not a dictionary
--> FOAM Warning : 
    From bool Foam::functionObjectList::read()
    in file db/functionObjects/functionObjectList/functionObjectList.C at line 1035
    Reading "system/controlDict" at line 2 to 41
    Entry 'tEnd' is not a dictionary
--> FOAM Warning : 
    From bool Foam::functionObjectList::read()
    in file db/functionObjects/functionObjectList/functionObjectList.C at line 1035
    Reading "system/controlDict" at line 2 to 41
    Entry 'writeInterval_' is not a dictionary
--> FOAM Warning : 
    From bool Foam::functionObjectList::read()
    in file db/functionObjects/functionObjectList/functionObjectList.C at line 1035
    Reading "system/controlDict" at line 2 to 41
    Entry 'nCores' is not a dictionary
--> FOAM Warning : 
    From bool Foam::functionObjectList::read()
    in file db/functionObjects/functionObjectList/functionObjectList.C at line 1035
    Reading "system/controlDict" at line 2 to 41
    Entry 'interpScheme' is not a dictionary
--> FOAM Warning : 
    From bool Foam::functionObjectList::read()
    in file db/functionObjects/functionObjectList/functionObjectList.C at line 1035
    Reading "system/controlDict" at line 2 to 41
    Entry 'probeField' is not a dictionary
wallShearStress wallShearStress:
    processing wall patches: 
        Windsor_Body
        CFDWT_Floor
        Windsor_Pins
        Windsor_Base

pressure calc_cp:
    Operating mode: staticCoeff
    Not including hydrostatic effects

forceCoeffs forceCoeffsAll:
    rho: rhoInf
    Freestream density (rhoInf) set to 1
    Not including porosity effects
    magUInf: 40
    lRef   : 0.6375
    Aref   : 0.1124
    rhoInf : 1
    Selecting all coefficients
    - Drag force: Cd
    - Drag force front: Cd(f)
    - Drag force rear: Cd(r)
    - Lift force: Cl
    - Lift force front: Cl(f)
    - Lift force rear: Cl(r)
    - Pitch moment: CmPitch
    - Roll moment: CmRoll
    - Yaw moment: CmYaw
    - Side force: Cs
    - Side force front: Cs(f)
    - Side force rear: Cs(r)


forceCoeffs dragCoeffBase:
    rho: rhoInf
    Freestream density (rhoInf) set to 1
    Not including porosity effects
    magUInf: 40
    lRef   : 0.6375
    Aref   : 0.1124
    rhoInf : 1
    Selecting coefficients:
    - Drag force: Cd


--> FOAM Warning : 
    From virtual void Foam::probes::findElements(const Foam::fvMesh&)
    in file probes/probes.C at line 249
    Location (-2 0 1.3) seems to be on multiple domains: cell 382251 on my domain 0 and cell 560069 on some other domain.
This might happen if the probe location is on a processor patch. Change the location slightly to prevent this.
--> FOAM Warning : 
    From virtual void Foam::probes::findElements(const Foam::fvMesh&)
    in file probes/probes.C at line 263
    Location (-2 0 1.3) seems to be on multiple domains: cell 1138605 on my domain 0 and face 2399942 on some other domain.
This might happen if the probe location is on a processor patch. Change the location slightly to prevent this.
Time = 1

velocityDampingConstraint velocityDamping damped 0 (0%) of cells, with max limit 300
[INFO] MatrixAssemblyU: 870.128 [ms]
smoothSolver:  Solving for Ux, Initial residual = 0.9999999999993588, Final residual = 0.08729434180673175, No Iterations 15
smoothSolver:  Solving for Uy, Initial residual = 1, Final residual = 0.08966203575031648, No Iterations 31
smoothSolver:  Solving for Uz, Initial residual = 1, Final residual = 0.03285879418663327, No Iterations 2
[INFO] MomentumPredictor: 806.9930000000001 [ms]
[INFO] MatrixAssemblyPI: 114.034 [ms]
[INFO] MatrixAssemblyPII: 57.206 [ms]
GAMG:  Solving for p, Initial residual = 1, Final residual = 0.009442464009811309, No Iterations 25
[INFO] SolveP: 2138.145 [ms]
time step continuity errors : sum local = 0.003464488035783377, global = 1.334700650231559e-05, cumulative = 1.334700650231559e-05
[INFO] postSolveP: 31.916 [ms]
smoothSolver:  Solving for nuTilda, Initial residual = 0.999999997307027, Final residual = 0.06428460854579708, No Iterations 3
[INFO] TimeStep: 4507.475 [ms]
ExecutionTime = 16.91 s  ClockTime = 17 s

--> FOAM Warning : 
    From virtual bool Foam::functionObjects::fieldSelection::checkSelection()
    in file functionObjects/fieldSelections/fieldSelection/fieldSelection.C at line 166
    Field k not found
--> FOAM Warning : 
    From virtual bool Foam::functionObjects::fieldSelection::checkSelection()
    in file functionObjects/fieldSelections/fieldSelection/fieldSelection.C at line 166
    Field gammaInt not found
--> FOAM Warning : 
    From virtual bool Foam::functionObjects::fieldSelection::checkSelection()
    in file functionObjects/fieldSelections/fieldSelection/fieldSelection.C at line 166
    Field omega not found
--> FOAM Warning : 
    From virtual bool Foam::functionObjects::fieldSelection::checkSelection()
    in file functionObjects/fieldSelections/fieldSelection/fieldSelection.C at line 166
    Field ReThetat not found
--> FOAM Warning : 
    From virtual bool Foam::functionObjects::fieldSelection::checkSelection()
    in file functionObjects/fieldSelections/fieldSelection/fieldSelection.C at line 166
    Field epsilon not found
--> FOAM Warning : 
    From virtual bool Foam::functionObjects::solverFieldSelection::updateSelection()
    in file functionObjects/fieldSelections/solverFieldSelection/solverFieldSelection.C at line 85
    Valid solver fields are: 3(U nuTilda p)Time = 2

velocityDampingConstraint velocityDamping damped 0 (0%) of cells, with max limit 300
[INFO] MatrixAssemblyU: 820.8680000000001 [ms]
smoothSolver:  Solving for Ux, Initial residual = 0.2130416778492117, Final residual = 0.01839412561657705, No Iterations 13
smoothSolver:  Solving for Uy, Initial residual = 0.3553250864842784, Final residual = 0.03320722884349063, No Iterations 13
smoothSolver:  Solving for Uz, Initial residual = 0.3289994038699202, Final residual = 0.02810337554384946, No Iterations 13
[INFO] MomentumPredictor: 665.583 [ms]
[INFO] MatrixAssemblyPI: 113.272 [ms]
[INFO] MatrixAssemblyPII: 56.923 [ms]
GAMG:  Solving for p, Initial residual = 0.2101906487107432, Final residual = 0.001927522150344322, No Iterations 12
[INFO] SolveP: 913.9930000000001 [ms]
time step continuity errors : sum local = 0.03943767536712799, global = -0.0002894323827424543, cumulative = -0.0002760853762401387
[INFO] postSolveP: 32.528 [ms]
smoothSolver:  Solving for nuTilda, Initial residual = 0.4059195420124703, Final residual = 0.02532624835032184, No Iterations 1
[INFO] TimeStep: 3069.002 [ms]
ExecutionTime = 20.64 s  ClockTime = 21 s

Time = 3

velocityDampingConstraint velocityDamping damped 832 (0.01%) of cells, with max limit 300
[INFO] MatrixAssemblyU: 839.672 [ms]
smoothSolver:  Solving for Ux, Initial residual = 0.1262528257361357, Final residual = 0.01199189830339005, No Iterations 9
smoothSolver:  Solving for Uy, Initial residual = 0.2054319754586572, Final residual = 0.0200315382495864, No Iterations 10
smoothSolver:  Solving for Uz, Initial residual = 0.2157965207063807, Final residual = 0.02138108769682435, No Iterations 9
[INFO] MomentumPredictor: 505.84 [ms]
[INFO] MatrixAssemblyPI: 113.128 [ms]
[INFO] MatrixAssemblyPII: 57.805 [ms]
GAMG:  Solving for p, Initial residual = 0.1076658871792093, Final residual = 0.001024886928373377, No Iterations 10
[INFO] SolveP: 776.828 [ms]
time step continuity errors : sum local = 0.01252197076150071, global = -0.0001033150433670676, cumulative = -0.0003794004196072064
[INFO] postSolveP: 31.607 [ms]
smoothSolver:  Solving for nuTilda, Initial residual = 0.2083170907813774, Final residual = 0.01315955389613545, No Iterations 2
[INFO] TimeStep: 2803.509 [ms]
ExecutionTime = 24.13 s  ClockTime = 24 s

Time = 4

velocityDampingConstraint velocityDamping damped 0 (0%) of cells, with max limit 300
[INFO] MatrixAssemblyU: 838.439 [ms]
smoothSolver:  Solving for Ux, Initial residual = 0.05428260569717654, Final residual = 0.004919832275369352, No Iterations 11
smoothSolver:  Solving for Uy, Initial residual = 0.1224986478492504, Final residual = 0.01076091271709771, No Iterations 11
smoothSolver:  Solving for Uz, Initial residual = 0.1315735037362499, Final residual = 0.01266435760257172, No Iterations 10
[INFO] MomentumPredictor: 566.258 [ms]
[INFO] MatrixAssemblyPI: 112.507 [ms]
[INFO] MatrixAssemblyPII: 57.73 [ms]
GAMG:  Solving for p, Initial residual = 0.1450494560394084, Final residual = 0.001212457252789548, No Iterations 7
[INFO] SolveP: 547.388 [ms]
time step continuity errors : sum local = 0.01127201258727937, global = 0.0001482192949544429, cumulative = -0.0002311811246527634
[INFO] postSolveP: 31.817 [ms]
smoothSolver:  Solving for nuTilda, Initial residual = 0.1247125474459776, Final residual = 0.01049354821984822, No Iterations 2
[INFO] TimeStep: 2629.58 [ms]
ExecutionTime = 27.43 s  ClockTime = 27 s

Time = 5

velocityDampingConstraint velocityDamping damped 113 (0%) of cells, with max limit 300
[INFO] MatrixAssemblyU: 829.004 [ms]
smoothSolver:  Solving for Ux, Initial residual = 0.04405083809941204, Final residual = 0.004200241288406872, No Iterations 10
smoothSolver:  Solving for Uy, Initial residual = 0.09768192819443411, Final residual = 0.009101460682957222, No Iterations 11
smoothSolver:  Solving for Uz, Initial residual = 0.1136383869669432, Final residual = 0.01116147744895909, No Iterations 10
[INFO] MomentumPredictor: 549.17 [ms]
[INFO] MatrixAssemblyPI: 112.445 [ms]
[INFO] MatrixAssemblyPII: 57.966 [ms]
GAMG:  Solving for p, Initial residual = 0.110963949912302, Final residual = 0.0008433114354160297, No Iterations 8
[INFO] SolveP: 623.567 [ms]
time step continuity errors : sum local = 0.00584498310275682, global = 0.0001443671065556017, cumulative = -8.681401809716171e-05
[INFO] postSolveP: 31.456 [ms]
smoothSolver:  Solving for nuTilda, Initial residual = 0.07085030110920641, Final residual = 0.004309390781065749, No Iterations 3
[INFO] TimeStep: 2690.254 [ms]
ExecutionTime = 30.79 s  ClockTime = 31 s

Time = 6

velocityDampingConstraint velocityDamping damped 0 (0%) of cells, with max limit 300
[INFO] MatrixAssemblyU: 820.159 [ms]
smoothSolver:  Solving for Ux, Initial residual = 0.0299545119090513, Final residual = 0.002660114042974601, No Iterations 12
smoothSolver:  Solving for Uy, Initial residual = 0.07509582031418015, Final residual = 0.006931914686963358, No Iterations 12
smoothSolver:  Solving for Uz, Initial residual = 0.08153036222959155, Final residual = 0.006982977959055038, No Iterations 12
[INFO] MomentumPredictor: 624.681 [ms]
[INFO] MatrixAssemblyPI: 112.981 [ms]
[INFO] MatrixAssemblyPII: 57.546 [ms]
GAMG:  Solving for p, Initial residual = 0.09264288959856391, Final residual = 0.0006905628250870563, No Iterations 7
[INFO] SolveP: 548.498 [ms]
time step continuity errors : sum local = 0.005291504004172443, global = 1.399467921728618e-05, cumulative = -7.281933887987553e-05
[INFO] postSolveP: 31.718 [ms]
smoothSolver:  Solving for nuTilda, Initial residual = 0.06422480015956675, Final residual = 0.003000095742199101, No Iterations 3
[INFO] TimeStep: 2679.908 [ms]
ExecutionTime = 34.13 s  ClockTime = 34 s

Time = 7

velocityDampingConstraint velocityDamping damped 14 (0%) of cells, with max limit 300
[INFO] MatrixAssemblyU: 815.046 [ms]
smoothSolver:  Solving for Ux, Initial residual = 0.02726896038574867, Final residual = 0.002424218778593685, No Iterations 12
smoothSolver:  Solving for Uy, Initial residual = 0.06806847966107651, Final residual = 0.006456225658138907, No Iterations 12
smoothSolver:  Solving for Uz, Initial residual = 0.07167943439917451, Final residual = 0.006266060514920973, No Iterations 12
[INFO] MomentumPredictor: 624.961 [ms]
[INFO] MatrixAssemblyPI: 112.776 [ms]
[INFO] MatrixAssemblyPII: 57.275 [ms]
GAMG:  Solving for p, Initial residual = 0.0807300886579536, Final residual = 0.0006655922225553746, No Iterations 6
[INFO] SolveP: 473.954 [ms]
time step continuity errors : sum local = 0.00501075745865698, global = -4.153610632996451e-05, cumulative = -0.00011435544520984
[INFO] postSolveP: 32.012 [ms]
smoothSolver:  Solving for nuTilda, Initial residual = 0.0490928297698793, Final residual = 0.003227404977238847, No Iterations 3
[INFO] TimeStep: 2598.311 [ms]
ExecutionTime = 37.39 s  ClockTime = 37 s

Time = 8

velocityDampingConstraint velocityDamping damped 0 (0%) of cells, with max limit 300
[INFO] MatrixAssemblyU: 813.602 [ms]
smoothSolver:  Solving for Ux, Initial residual = 0.02316392253770951, Final residual = 0.002141727242207055, No Iterations 12
smoothSolver:  Solving for Uy, Initial residual = 0.06054700754030543, Final residual = 0.005943000494093967, No Iterations 12
smoothSolver:  Solving for Uz, Initial residual = 0.06231639502498257, Final residual = 0.005628584586781183, No Iterations 12
[INFO] MomentumPredictor: 621.52 [ms]
[INFO] MatrixAssemblyPI: 113.6 [ms]
[INFO] MatrixAssemblyPII: 57.019 [ms]
GAMG:  Solving for p, Initial residual = 0.07300614433261843, Final residual = 0.0005085438354625214, No Iterations 6
[INFO] SolveP: 475.294 [ms]
time step continuity errors : sum local = 0.003905891619123196, global = -4.628803392507944e-05, cumulative = -0.0001606434791349195
[INFO] postSolveP: 32.038 [ms]
smoothSolver:  Solving for nuTilda, Initial residual = 0.0653737791845848, Final residual = 0.005854478889009236, No Iterations 2
[INFO] TimeStep: 2581.632 [ms]
ExecutionTime = 40.62 s  ClockTime = 41 s

Time = 9

velocityDampingConstraint velocityDamping damped 0 (0%) of cells, with max limit 300
[INFO] MatrixAssemblyU: 811.015 [ms]
smoothSolver:  Solving for Ux, Initial residual = 0.02042676620613754, Final residual = 0.001901985962645671, No Iterations 12
smoothSolver:  Solving for Uy, Initial residual = 0.0546442322706597, Final residual = 0.00544206543236642, No Iterations 12
smoothSolver:  Solving for Uz, Initial residual = 0.05538934658362162, Final residual = 0.005128771467255985, No Iterations 12
[INFO] MomentumPredictor: 622.792 [ms]
[INFO] MatrixAssemblyPI: 114.129 [ms]
[INFO] MatrixAssemblyPII: 57.229 [ms]
GAMG:  Solving for p, Initial residual = 0.06729281833037305, Final residual = 0.0004374056914637678, No Iterations 6
[INFO] SolveP: 475.988 [ms]
time step continuity errors : sum local = 0.003366156440884771, global = -2.615763894930641e-05, cumulative = -0.0001868011180842259
[INFO] postSolveP: 31.971 [ms]
smoothSolver:  Solving for nuTilda, Initial residual = 0.04412257378232353, Final residual = 0.003199053575697206, No Iterations 3
[INFO] TimeStep: 2596.946 [ms]
ExecutionTime = 43.88 s  ClockTime = 44 s

Time = 10

velocityDampingConstraint velocityDamping damped 0 (0%) of cells, with max limit 300
[INFO] MatrixAssemblyU: 807.816 [ms]
smoothSolver:  Solving for Ux, Initial residual = 0.01837509487883663, Final residual = 0.001725821840714399, No Iterations 12
smoothSolver:  Solving for Uy, Initial residual = 0.05040532614609461, Final residual = 0.005004583292506997, No Iterations 12
smoothSolver:  Solving for Uz, Initial residual = 0.05062566868093742, Final residual = 0.004753668671445426, No Iterations 12
[INFO] MomentumPredictor: 624.044 [ms]
[INFO] MatrixAssemblyPI: 114.637 [ms]
[INFO] MatrixAssemblyPII: 56.915 [ms]
GAMG:  Solving for p, Initial residual = 0.06152849090953406, Final residual = 0.0003880831284271697, No Iterations 6
[INFO] SolveP: 474.466 [ms]
time step continuity errors : sum local = 0.002959588774267908, global = 7.309801486152874e-06, cumulative = -0.000179491316598073
[INFO] postSolveP: 32.653 [ms]
smoothSolver:  Solving for nuTilda, Initial residual = 0.06975798593425232, Final residual = 0.005482568194366596, No Iterations 2
[INFO] TimeStep: 2576.831 [ms]
ExecutionTime = 47.1 s  ClockTime = 47 s

Time = 11

velocityDampingConstraint velocityDamping damped 0 (0%) of cells, with max limit 300
[INFO] MatrixAssemblyU: 806.398 [ms]
smoothSolver:  Solving for Ux, Initial residual = 0.01670583950596014, Final residual = 0.001603284671601018, No Iterations 12
smoothSolver:  Solving for Uy, Initial residual = 0.04756370571406038, Final residual = 0.00468949613672559, No Iterations 12
smoothSolver:  Solving for Uz, Initial residual = 0.04739217322629848, Final residual = 0.004481539893990365, No Iterations 12
[INFO] MomentumPredictor: 622.504 [ms]
[INFO] MatrixAssemblyPI: 112.933 [ms]
[INFO] MatrixAssemblyPII: 57.448 [ms]
GAMG:  Solving for p, Initial residual = 0.05712930076112855, Final residual = 0.0003844258106694411, No Iterations 6
[INFO] SolveP: 479.894 [ms]
time step continuity errors : sum local = 0.002944724760170978, global = 2.868514590340716e-05, cumulative = -0.0001508061706946658
[INFO] postSolveP: 32.262 [ms]
smoothSolver:  Solving for nuTilda, Initial residual = 0.03911944058884124, Final residual = 0.003024672794067943, No Iterations 3
[INFO] TimeStep: 2591.455 [ms]
ExecutionTime = 50.34 s  ClockTime = 50 s

Time = 12

velocityDampingConstraint velocityDamping damped 0 (0%) of cells, with max limit 300
[INFO] MatrixAssemblyU: 805.982 [ms]
smoothSolver:  Solving for Ux, Initial residual = 0.01557008921811395, Final residual = 0.001516949140350196, No Iterations 12
smoothSolver:  Solving for Uy, Initial residual = 0.04550459335276739, Final residual = 0.004454817797109054, No Iterations 12
smoothSolver:  Solving for Uz, Initial residual = 0.04494605020387566, Final residual = 0.004268808605750717, No Iterations 12
[INFO] MomentumPredictor: 623.403 [ms]
[INFO] MatrixAssemblyPI: 113.766 [ms]
[INFO] MatrixAssemblyPII: 57.095 [ms]
GAMG:  Solving for p, Initial residual = 0.0530742554678641, Final residual = 0.0003724283646887847, No Iterations 6
[INFO] SolveP: 478.44 [ms]
time step continuity errors : sum local = 0.002873137407091302, global = 2.807078013988182e-05, cumulative = -0.000122735390554784
[INFO] postSolveP: 32.319 [ms]
smoothSolver:  Solving for nuTilda, Initial residual = 0.0655382471434295, Final residual = 0.005097514659497311, No Iterations 2
[INFO] TimeStep: 2576.35 [ms]
ExecutionTime = 53.56 s  ClockTime = 54 s

Time = 13

velocityDampingConstraint velocityDamping damped 0 (0%) of cells, with max limit 300
[INFO] MatrixAssemblyU: 807.332 [ms]
smoothSolver:  Solving for Ux, Initial residual = 0.01454446177249595, Final residual = 0.001443378881585224, No Iterations 12
smoothSolver:  Solving for Uy, Initial residual = 0.04361676457460096, Final residual = 0.004259167121916201, No Iterations 12
smoothSolver:  Solving for Uz, Initial residual = 0.04310694272855936, Final residual = 0.004120985402721195, No Iterations 12
[INFO] MomentumPredictor: 623.17 [ms]
[INFO] MatrixAssemblyPI: 113.57 [ms]
[INFO] MatrixAssemblyPII: 56.911 [ms]
GAMG:  Solving for p, Initial residual = 0.04980635114834713, Final residual = 0.0003565991379105253, No Iterations 6
[INFO] SolveP: 475.76 [ms]
time step continuity errors : sum local = 0.00277022802232027, global = 2.014230301556018e-05, cumulative = -0.0001025930875392238
[INFO] postSolveP: 32.268 [ms]
smoothSolver:  Solving for nuTilda, Initial residual = 0.03468197357002007, Final residual = 0.002827741929861695, No Iterations 3
[INFO] TimeStep: 2587.942 [ms]
ExecutionTime = 56.8 s  ClockTime = 57 s

Time = 14

velocityDampingConstraint velocityDamping damped 0 (0%) of cells, with max limit 300
[INFO] MatrixAssemblyU: 805.247 [ms]
smoothSolver:  Solving for Ux, Initial residual = 0.01371049596288142, Final residual = 0.001172088352294145, No Iterations 13
smoothSolver:  Solving for Uy, Initial residual = 0.04178395525453671, Final residual = 0.004092151503798345, No Iterations 12
smoothSolver:  Solving for Uz, Initial residual = 0.04206509094465689, Final residual = 0.004042907657898429, No Iterations 12
[INFO] MomentumPredictor: 635.575 [ms]
[INFO] MatrixAssemblyPI: 113.142 [ms]
[INFO] MatrixAssemblyPII: 57.08 [ms]
GAMG:  Solving for p, Initial residual = 0.04734468819480391, Final residual = 0.0003411354908060537, No Iterations 6
[INFO] SolveP: 474.625 [ms]
time step continuity errors : sum local = 0.00266119627629814, global = 7.396561453070971e-06, cumulative = -9.519652608615285e-05
[INFO] postSolveP: 32.059 [ms]
smoothSolver:  Solving for nuTilda, Initial residual = 0.05812474520258106, Final residual = 0.004797863188187743, No Iterations 2
[INFO] TimeStep: 2581.785 [ms]
ExecutionTime = 60.03 s  ClockTime = 60 s

Time = 15

velocityDampingConstraint velocityDamping damped 0 (0%) of cells, with max limit 300
[INFO] MatrixAssemblyU: 804.772 [ms]
smoothSolver:  Solving for Ux, Initial residual = 0.01283979282011911, Final residual = 0.001109248782119816, No Iterations 13
smoothSolver:  Solving for Uy, Initial residual = 0.04034029221302048, Final residual = 0.003977914852039422, No Iterations 12
smoothSolver:  Solving for Uz, Initial residual = 0.04170018912315939, Final residual = 0.004034339176528462, No Iterations 12
[INFO] MomentumPredictor: 636.248 [ms]
[INFO] MatrixAssemblyPI: 112.474 [ms]
[INFO] MatrixAssemblyPII: 56.911 [ms]
GAMG:  Solving for p, Initial residual = 0.04574497060260427, Final residual = 0.0003312786987448322, No Iterations 6
[INFO] SolveP: 473.402 [ms]
time step continuity errors : sum local = 0.002596477037863103, global = -9.328039364446772e-06, cumulative = -0.0001045245654505996
[INFO] postSolveP: 32.193 [ms]
smoothSolver:  Solving for nuTilda, Initial residual = 0.03130585045469114, Final residual = 0.002660986259820132, No Iterations 3
[INFO] TimeStep: 2595.7 [ms]
ExecutionTime = 63.27 s  ClockTime = 63 s

Time = 16

velocityDampingConstraint velocityDamping damped 0 (0%) of cells, with max limit 300
[INFO] MatrixAssemblyU: 802.699 [ms]
smoothSolver:  Solving for Ux, Initial residual = 0.01219786967700998, Final residual = 0.001053488300739004, No Iterations 13
smoothSolver:  Solving for Uy, Initial residual = 0.03941276870282461, Final residual = 0.003905523938511836, No Iterations 12
smoothSolver:  Solving for Uz, Initial residual = 0.04161953885031987, Final residual = 0.004040988976470821, No Iterations 12
[INFO] MomentumPredictor: 637.356 [ms]
[INFO] MatrixAssemblyPI: 112.965 [ms]
[INFO] MatrixAssemblyPII: 57.127 [ms]
GAMG:  Solving for p, Initial residual = 0.04444683602368733, Final residual = 0.0003234541607733567, No Iterations 6
[INFO] SolveP: 472.543 [ms]
time step continuity errors : sum local = 0.002543409712142662, global = -1.805610308951781e-05, cumulative = -0.0001225806685401174
[INFO] postSolveP: 32.214 [ms]
smoothSolver:  Solving for nuTilda, Initial residual = 0.05167762718619469, Final residual = 0.004549181551126623, No Iterations 2
[INFO] TimeStep: 2578.181 [ms]
ExecutionTime = 66.48999999999999 s  ClockTime = 67 s

Time = 17

velocityDampingConstraint velocityDamping damped 0 (0%) of cells, with max limit 300
[INFO] MatrixAssemblyU: 802.485 [ms]
smoothSolver:  Solving for Ux, Initial residual = 0.01157374092869784, Final residual = 0.001004743147467397, No Iterations 13
smoothSolver:  Solving for Uy, Initial residual = 0.03887261211763017, Final residual = 0.003873544564206856, No Iterations 12
smoothSolver:  Solving for Uz, Initial residual = 0.04157599372274919, Final residual = 0.004046341697259509, No Iterations 12
[INFO] MomentumPredictor: 638.484 [ms]
[INFO] MatrixAssemblyPI: 112.539 [ms]
[INFO] MatrixAssemblyPII: 57.967 [ms]
GAMG:  Solving for p, Initial residual = 0.04397804181464379, Final residual = 0.0003227938452683779, No Iterations 6
[INFO] SolveP: 473.494 [ms]
time step continuity errors : sum local = 0.002553195380899153, global = -2.003836368206685e-05, cumulative = -0.0001426190322221843
[INFO] postSolveP: 32.265 [ms]
smoothSolver:  Solving for nuTilda, Initial residual = 0.02882078626625859, Final residual = 0.002512302862919208, No Iterations 3
[INFO] TimeStep: 2594.87 [ms]
ExecutionTime = 69.73 s  ClockTime = 70 s

Time = 18

velocityDampingConstraint velocityDamping damped 0 (0%) of cells, with max limit 300
[INFO] MatrixAssemblyU: 801.952 [ms]
smoothSolver:  Solving for Ux, Initial residual = 0.0112285391692131, Final residual = 0.0009647972327431383, No Iterations 13
smoothSolver:  Solving for Uy, Initial residual = 0.03874408356320195, Final residual = 0.003302954140316056, No Iterations 13
smoothSolver:  Solving for Uz, Initial residual = 0.04177891860827003, Final residual = 0.004052952783246692, No Iterations 12
[INFO] MomentumPredictor: 651.655 [ms]
[INFO] MatrixAssemblyPI: 113.547 [ms]
[INFO] MatrixAssemblyPII: 57.433 [ms]
GAMG:  Solving for p, Initial residual = 0.04388240800430509, Final residual = 0.0003275570640064663, No Iterations 6
[INFO] SolveP: 473.284 [ms]
time step continuity errors : sum local = 0.002607380132761521, global = -1.001300754670729e-05, cumulative = -0.0001526320397688916
[INFO] postSolveP: 32.286 [ms]
smoothSolver:  Solving for nuTilda, Initial residual = 0.0463422111796899, Final residual = 0.004298961681291513, No Iterations 2
[INFO] TimeStep: 2593.42 [ms]
ExecutionTime = 72.97 s  ClockTime = 73 s

Time = 19

velocityDampingConstraint velocityDamping damped 0 (0%) of cells, with max limit 300
[INFO] MatrixAssemblyU: 802.196 [ms]
smoothSolver:  Solving for Ux, Initial residual = 0.01087722470655464, Final residual = 0.000934430050389186, No Iterations 13
smoothSolver:  Solving for Uy, Initial residual = 0.03902603576875342, Final residual = 0.003322784086820666, No Iterations 13
smoothSolver:  Solving for Uz, Initial residual = 0.04255370160709801, Final residual = 0.004102191002068955, No Iterations 12
[INFO] MomentumPredictor: 652.333 [ms]
[INFO] MatrixAssemblyPI: 112.793 [ms]
[INFO] MatrixAssemblyPII: 56.975 [ms]
GAMG:  Solving for p, Initial residual = 0.04409136246871168, Final residual = 0.0003235223094004879, No Iterations 6
[INFO] SolveP: 475.172 [ms]
time step continuity errors : sum local = 0.002591793914150871, global = 2.580745847167514e-06, cumulative = -0.000150051293921724
[INFO] postSolveP: 32.088 [ms]
smoothSolver:  Solving for nuTilda, Initial residual = 0.02687993380362923, Final residual = 0.002363509535145167, No Iterations 3
[INFO] TimeStep: 2610.775 [ms]
ExecutionTime = 76.22 s  ClockTime = 76 s

Time = 20

velocityDampingConstraint velocityDamping damped 0 (0%) of cells, with max limit 300
[INFO] MatrixAssemblyU: 802.361 [ms]
smoothSolver:  Solving for Ux, Initial residual = 0.01070058964356003, Final residual = 0.0009151172444735768, No Iterations 13
smoothSolver:  Solving for Uy, Initial residual = 0.03941696779279011, Final residual = 0.003923337996975607, No Iterations 12
smoothSolver:  Solving for Uz, Initial residual = 0.04318326591011962, Final residual = 0.004137773228436357, No Iterations 12
[INFO] MomentumPredictor: 637.081 [ms]
[INFO] MatrixAssemblyPI: 113.21 [ms]
[INFO] MatrixAssemblyPII: 57.126 [ms]
GAMG:  Solving for p, Initial residual = 0.04396905095764838, Final residual = 0.0003153096466674843, No Iterations 6
[INFO] SolveP: 473.632 [ms]
time step continuity errors : sum local = 0.002548974853325961, global = 1.430218869592958e-05, cumulative = -0.0001357491052257945
[INFO] postSolveP: 32.17 [ms]
smoothSolver:  Solving for nuTilda, Initial residual = 0.04180680574235122, Final residual = 0.004046096813928481, No Iterations 2
[INFO] TimeStep: 2578.664 [ms]
ExecutionTime = 79.45 s  ClockTime = 80 s

Time = 21

velocityDampingConstraint velocityDamping damped 0 (0%) of cells, with max limit 300
[INFO] MatrixAssemblyU: 801.5069999999999 [ms]
smoothSolver:  Solving for Ux, Initial residual = 0.01049624534040806, Final residual = 0.0009015122865893832, No Iterations 13
smoothSolver:  Solving for Uy, Initial residual = 0.04005026140386792, Final residual = 0.003972592133517864, No Iterations 12
smoothSolver:  Solving for Uz, Initial residual = 0.04352239924595808, Final residual = 0.00413638930101208, No Iterations 12
[INFO] MomentumPredictor: 634.571 [ms]
[INFO] MatrixAssemblyPI: 112.554 [ms]
[INFO] MatrixAssemblyPII: 57.287 [ms]
GAMG:  Solving for p, Initial residual = 0.04395350339069404, Final residual = 0.0003030920138105166, No Iterations 6
[INFO] SolveP: 474.679 [ms]
time step continuity errors : sum local = 0.002482310568555517, global = 1.686723138703633e-05, cumulative = -0.0001188818738387581
[INFO] postSolveP: 32.715 [ms]
smoothSolver:  Solving for nuTilda, Initial residual = 0.02512068361556094, Final residual = 0.002218642109191845, No Iterations 3
[INFO] TimeStep: 2592.677 [ms]
ExecutionTime = 82.68000000000001 s  ClockTime = 83 s

Time = 22

velocityDampingConstraint velocityDamping damped 0 (0%) of cells, with max limit 300
[INFO] MatrixAssemblyU: 801.39 [ms]
smoothSolver:  Solving for Ux, Initial residual = 0.01046811202425568, Final residual = 0.001044977793822237, No Iterations 12
smoothSolver:  Solving for Uy, Initial residual = 0.04070321591071906, Final residual = 0.003997925451205526, No Iterations 12
smoothSolver:  Solving for Uz, Initial residual = 0.04347772257124169, Final residual = 0.004097100586164315, No Iterations 12
[INFO] MomentumPredictor: 624.4930000000001 [ms]
[INFO] MatrixAssemblyPI: 113.326 [ms]
[INFO] MatrixAssemblyPII: 56.978 [ms]
GAMG:  Solving for p, Initial residual = 0.04371494726971507, Final residual = 0.0003038162774571621, No Iterations 6
[INFO] SolveP: 473.699 [ms]
time step continuity errors : sum local = 0.002525126112318539, global = 1.666618245806879e-05, cumulative = -0.0001022156913806893
[INFO] postSolveP: 31.986 [ms]
smoothSolver:  Solving for nuTilda, Initial residual = 0.03795586394925242, Final residual = 0.002018134867954733, No Iterations 3
[INFO] TimeStep: 2579.442 [ms]
ExecutionTime = 85.91 s  ClockTime = 86 s

Time = 23

velocityDampingConstraint velocityDamping damped 0 (0%) of cells, with max limit 300
[INFO] MatrixAssemblyU: 801.341 [ms]
smoothSolver:  Solving for Ux, Initial residual = 0.01035567360326225, Final residual = 0.0008835349335736799, No Iterations 13
smoothSolver:  Solving for Uy, Initial residual = 0.04124634267952966, Final residual = 0.003992698613235157, No Iterations 12
smoothSolver:  Solving for Uz, Initial residual = 0.04300205354274724, Final residual = 0.004005761796650162, No Iterations 12
[INFO] MomentumPredictor: 636.623 [ms]
[INFO] MatrixAssemblyPI: 112.648 [ms]
[INFO] MatrixAssemblyPII: 57.276 [ms]
GAMG:  Solving for p, Initial residual = 0.04339164478215929, Final residual = 0.0003104969384726419, No Iterations 6
[INFO] SolveP: 473.441 [ms]
time step continuity errors : sum local = 0.002623776581063332, global = 2.414271645679766e-05, cumulative = -7.807297492389169e-05
[INFO] postSolveP: 32.132 [ms]
smoothSolver:  Solving for nuTilda, Initial residual = 0.02333351063459918, Final residual = 0.002087378311351368, No Iterations 3
[INFO] TimeStep: 2590.866 [ms]
ExecutionTime = 89.14 s  ClockTime = 89 s

Time = 24

velocityDampingConstraint velocityDamping damped 0 (0%) of cells, with max limit 300
[INFO] MatrixAssemblyU: 805.724 [ms]
smoothSolver:  Solving for Ux, Initial residual = 0.01037432328700221, Final residual = 0.001028975418156945, No Iterations 12
smoothSolver:  Solving for Uy, Initial residual = 0.04199096409322374, Final residual = 0.004032233795852205, No Iterations 12
smoothSolver:  Solving for Uz, Initial residual = 0.04258926429672685, Final residual = 0.003930302653551824, No Iterations 12
[INFO] MomentumPredictor: 623.458 [ms]
[INFO] MatrixAssemblyPI: 112.7 [ms]
[INFO] MatrixAssemblyPII: 57.06 [ms]
GAMG:  Solving for p, Initial residual = 0.04301368187223873, Final residual = 0.000313674612695106, No Iterations 6
[INFO] SolveP: 477.398 [ms]
time step continuity errors : sum local = 0.002692618192381604, global = 2.66700547294445e-05, cumulative = -5.140292019444719e-05
[INFO] postSolveP: 32.222 [ms]
smoothSolver:  Solving for nuTilda, Initial residual = 0.03446479593485736, Final residual = 0.001908725580908921, No Iterations 3
[INFO] TimeStep: 2587.611 [ms]
ExecutionTime = 92.37 s  ClockTime = 93 s

Time = 25

velocityDampingConstraint velocityDamping damped 0 (0%) of cells, with max limit 300
[INFO] MatrixAssemblyU: 802.693 [ms]
smoothSolver:  Solving for Ux, Initial residual = 0.0103138250789425, Final residual = 0.0008795923475963887, No Iterations 13
smoothSolver:  Solving for Uy, Initial residual = 0.04283679872664546, Final residual = 0.004125922949537378, No Iterations 12
smoothSolver:  Solving for Uz, Initial residual = 0.04235397320456957, Final residual = 0.003896149788840478, No Iterations 12
[INFO] MomentumPredictor: 636.01 [ms]
[INFO] MatrixAssemblyPI: 113.642 [ms]
[INFO] MatrixAssemblyPII: 56.973 [ms]
GAMG:  Solving for p, Initial residual = 0.04236456473948252, Final residual = 0.0003121859784393664, No Iterations 6
[INFO] SolveP: 478.025 [ms]
time step continuity errors : sum local = 0.00272732236332455, global = 3.24417776848323e-05, cumulative = -1.896114250961489e-05
[INFO] postSolveP: 32.067 [ms]
smoothSolver:  Solving for nuTilda, Initial residual = 0.02149248749928143, Final residual = 0.001956022269145495, No Iterations 3
[INFO] TimeStep: 2597.143 [ms]
ExecutionTime = 95.62 s  ClockTime = 96 s

Time = 26

velocityDampingConstraint velocityDamping damped 0 (0%) of cells, with max limit 300
[INFO] MatrixAssemblyU: 802.792 [ms]
smoothSolver:  Solving for Ux, Initial residual = 0.01038531848278707, Final residual = 0.001031664761843063, No Iterations 12
smoothSolver:  Solving for Uy, Initial residual = 0.04379882499221777, Final residual = 0.004276510505252438, No Iterations 12
smoothSolver:  Solving for Uz, Initial residual = 0.0423577596777362, Final residual = 0.003938474332000847, No Iterations 12
[INFO] MomentumPredictor: 624.149 [ms]
[INFO] MatrixAssemblyPI: 113.247 [ms]
[INFO] MatrixAssemblyPII: 56.894 [ms]
GAMG:  Solving for p, Initial residual = 0.04192172377971278, Final residual = 0.0003136156946898708, No Iterations 6
[INFO] SolveP: 475.05 [ms]
time step continuity errors : sum local = 0.002777165038491462, global = 3.01529573849058e-05, cumulative = 1.119181487529091e-05
[INFO] postSolveP: 32.228 [ms]
smoothSolver:  Solving for nuTilda, Initial residual = 0.03149504327444837, Final residual = 0.001802958302160002, No Iterations 3
[INFO] TimeStep: 2581.777 [ms]
ExecutionTime = 98.84 s  ClockTime = 99 s

Time = 27

velocityDampingConstraint velocityDamping damped 0 (0%) of cells, with max limit 300
[INFO] MatrixAssemblyU: 802.409 [ms]
smoothSolver:  Solving for Ux, Initial residual = 0.0103823821019835, Final residual = 0.001033129393623721, No Iterations 12
smoothSolver:  Solving for Uy, Initial residual = 0.04483376282486545, Final residual = 0.004444666710544632, No Iterations 12
smoothSolver:  Solving for Uz, Initial residual = 0.04264113135989169, Final residual = 0.004019202991715352, No Iterations 12
[INFO] MomentumPredictor: 621.024 [ms]
[INFO] MatrixAssemblyPI: 112.652 [ms]
[INFO] MatrixAssemblyPII: 58.607 [ms]
GAMG:  Solving for p, Initial residual = 0.0421259327426359, Final residual = 0.0003129983935369582, No Iterations 6
[INFO] SolveP: 475.529 [ms]
time step continuity errors : sum local = 0.002810261895898268, global = 3.398222757655465e-05, cumulative = 4.517404245184556e-05
[INFO] postSolveP: 32.29 [ms]
smoothSolver:  Solving for nuTilda, Initial residual = 0.01981649799153759, Final residual = 0.001830688376909442, No Iterations 3
[INFO] TimeStep: 2579.904 [ms]
ExecutionTime = 102.07 s  ClockTime = 102 s

Time = 28

velocityDampingConstraint velocityDamping damped 0 (0%) of cells, with max limit 300
[INFO] MatrixAssemblyU: 801.5 [ms]
smoothSolver:  Solving for Ux, Initial residual = 0.01052637823052159, Final residual = 0.001036433830089154, No Iterations 12
smoothSolver:  Solving for Uy, Initial residual = 0.04619318621443877, Final residual = 0.003942763677104828, No Iterations 13
smoothSolver:  Solving for Uz, Initial residual = 0.04362915185009525, Final residual = 0.004128923388058348, No Iterations 12
[INFO] MomentumPredictor: 638.23 [ms]
[INFO] MatrixAssemblyPI: 112.927 [ms]
[INFO] MatrixAssemblyPII: 57.063 [ms]
GAMG:  Solving for p, Initial residual = 0.04300454163921092, Final residual = 0.0003162584741798844, No Iterations 6
[INFO] SolveP: 473.685 [ms]
time step continuity errors : sum local = 0.002878293713937866, global = 3.725226119708377e-05, cumulative = 8.242630364892932e-05
[INFO] postSolveP: 32.627 [ms]
smoothSolver:  Solving for nuTilda, Initial residual = 0.02895968141687754, Final residual = 0.001696240537261881, No Iterations 3
[INFO] TimeStep: 2593.054 [ms]
ExecutionTime = 105.3 s  ClockTime = 106 s

Time = 29

velocityDampingConstraint velocityDamping damped 0 (0%) of cells, with max limit 300
[INFO] MatrixAssemblyU: 802.123 [ms]
smoothSolver:  Solving for Ux, Initial residual = 0.01056365273169561, Final residual = 0.001037964737321008, No Iterations 12
smoothSolver:  Solving for Uy, Initial residual = 0.04777444854299159, Final residual = 0.00407844583219172, No Iterations 13
smoothSolver:  Solving for Uz, Initial residual = 0.04504894235498254, Final residual = 0.004266884803360143, No Iterations 12
[INFO] MomentumPredictor: 637.681 [ms]
[INFO] MatrixAssemblyPI: 114.571 [ms]
[INFO] MatrixAssemblyPII: 57.387 [ms]
GAMG:  Solving for p, Initial residual = 0.04393933861025612, Final residual = 0.000310127669220518, No Iterations 6
[INFO] SolveP: 473.518 [ms]
time step continuity errors : sum local = 0.002859851435785452, global = 4.07630432928751e-05, cumulative = 0.0001231893469418044
[INFO] postSolveP: 31.972 [ms]
smoothSolver:  Solving for nuTilda, Initial residual = 0.01833538070833032, Final residual = 0.001707570584740273, No Iterations 3
[INFO] TimeStep: 2593.829 [ms]
ExecutionTime = 108.54 s  ClockTime = 109 s

Time = 30

velocityDampingConstraint velocityDamping damped 0 (0%) of cells, with max limit 300
[INFO] MatrixAssemblyU: 799.975 [ms]
smoothSolver:  Solving for Ux, Initial residual = 0.01075797790818847, Final residual = 0.001043684825741265, No Iterations 12
smoothSolver:  Solving for Uy, Initial residual = 0.04983354390401139, Final residual = 0.004964710642606901, No Iterations 12
smoothSolver:  Solving for Uz, Initial residual = 0.04660908693023522, Final residual = 0.004394845964147847, No Iterations 12
[INFO] MomentumPredictor: 621.244 [ms]
[INFO] MatrixAssemblyPI: 114.56 [ms]
[INFO] MatrixAssemblyPII: 57.132 [ms]
GAMG:  Solving for p, Initial residual = 0.04475937369423165, Final residual = 0.0002960110246447111, No Iterations 6
[INFO] SolveP: 473.324 [ms]
time step continuity errors : sum local = 0.002768442081516736, global = 4.073400723154491e-05, cumulative = 0.0001639233541733493
[INFO] postSolveP: 31.826 [ms]
smoothSolver:  Solving for nuTilda, Initial residual = 0.02677425614249785, Final residual = 0.001589519409280751, No Iterations 3
[INFO] TimeStep: 2575.341 [ms]
ExecutionTime = 111.76 s  ClockTime = 112 s

Time = 31

velocityDampingConstraint velocityDamping damped 0 (0%) of cells, with max limit 300
[INFO] MatrixAssemblyU: 799.317 [ms]
smoothSolver:  Solving for Ux, Initial residual = 0.01082134188199203, Final residual = 0.001048737322780056, No Iterations 12
smoothSolver:  Solving for Uy, Initial residual = 0.05233363848736047, Final residual = 0.00519497612391475, No Iterations 12
smoothSolver:  Solving for Uz, Initial residual = 0.04822285830790721, Final residual = 0.004533793239853892, No Iterations 12
[INFO] MomentumPredictor: 620.678 [ms]
[INFO] MatrixAssemblyPI: 112.399 [ms]
[INFO] MatrixAssemblyPII: 58.603 [ms]
GAMG:  Solving for p, Initial residual = 0.04602282348904484, Final residual = 0.0002997338014580857, No Iterations 6
[INFO] SolveP: 473.241 [ms]
time step continuity errors : sum local = 0.002837342857217347, global = 3.954530473347232e-05, cumulative = 0.0002034686589068216
[INFO] postSolveP: 32.019 [ms]
smoothSolver:  Solving for nuTilda, Initial residual = 0.01706828704419853, Final residual = 0.00158933344498693, No Iterations 3
[INFO] TimeStep: 2573.141 [ms]
ExecutionTime = 114.97 s  ClockTime = 115 s

Time = 32

velocityDampingConstraint velocityDamping damped 0 (0%) of cells, with max limit 300
[INFO] MatrixAssemblyU: 798.861 [ms]
smoothSolver:  Solving for Ux, Initial residual = 0.01094947161272039, Final residual = 0.001055567773169505, No Iterations 12
smoothSolver:  Solving for Uy, Initial residual = 0.05470390230900601, Final residual = 0.005413530200594153, No Iterations 12
smoothSolver:  Solving for Uz, Initial residual = 0.0498018462475374, Final residual = 0.00473584064549481, No Iterations 12
[INFO] MomentumPredictor: 622.49 [ms]
[INFO] MatrixAssemblyPI: 113.569 [ms]
[INFO] MatrixAssemblyPII: 57.483 [ms]
GAMG:  Solving for p, Initial residual = 0.04762604372415957, Final residual = 0.0003063528008038311, No Iterations 6
[INFO] SolveP: 473.984 [ms]
time step continuity errors : sum local = 0.002930353400660176, global = 3.346909724440489e-05, cumulative = 0.0002369377561512265
[INFO] postSolveP: 32.306 [ms]
smoothSolver:  Solving for nuTilda, Initial residual = 0.02487025821121634, Final residual = 0.001487534826110753, No Iterations 3
[INFO] TimeStep: 2574.694 [ms]
ExecutionTime = 118.19 s  ClockTime = 119 s

Time = 33

velocityDampingConstraint velocityDamping damped 0 (0%) of cells, with max limit 300
[INFO] MatrixAssemblyU: 799.876 [ms]
smoothSolver:  Solving for Ux, Initial residual = 0.01091035018357058, Final residual = 0.001062190330557613, No Iterations 12
smoothSolver:  Solving for Uy, Initial residual = 0.05701571378524261, Final residual = 0.005632265811037056, No Iterations 12
smoothSolver:  Solving for Uz, Initial residual = 0.05199444301444459, Final residual = 0.005007747303821745, No Iterations 12
[INFO] MomentumPredictor: 621.153 [ms]
[INFO] MatrixAssemblyPI: 112.724 [ms]
[INFO] MatrixAssemblyPII: 57.461 [ms]
GAMG:  Solving for p, Initial residual = 0.04958651391113496, Final residual = 0.0003154011696537103, No Iterations 6
[INFO] SolveP: 473.915 [ms]
time step continuity errors : sum local = 0.003043897453007402, global = 3.129928404538145e-05, cumulative = 0.000268237040196608
[INFO] postSolveP: 32.044 [ms]
smoothSolver:  Solving for nuTilda, Initial residual = 0.01598189310818134, Final residual = 0.001480075771043533, No Iterations 3
[INFO] TimeStep: 2573.256 [ms]
ExecutionTime = 121.41 s  ClockTime = 122 s

Time = 34

velocityDampingConstraint velocityDamping damped 0 (0%) of cells, with max limit 300
[INFO] MatrixAssemblyU: 799.396 [ms]
smoothSolver:  Solving for Ux, Initial residual = 0.01103430432475723, Final residual = 0.001072845471953766, No Iterations 12
smoothSolver:  Solving for Uy, Initial residual = 0.05953154041225871, Final residual = 0.005880674536603745, No Iterations 12
smoothSolver:  Solving for Uz, Initial residual = 0.05449027392918014, Final residual = 0.005300975582963184, No Iterations 12
[INFO] MomentumPredictor: 622.325 [ms]
[INFO] MatrixAssemblyPI: 113.521 [ms]
[INFO] MatrixAssemblyPII: 57.07 [ms]
GAMG:  Solving for p, Initial residual = 0.05177270360271494, Final residual = 0.0003187818688888518, No Iterations 6
[INFO] SolveP: 474.412 [ms]
time step continuity errors : sum local = 0.00310249130322183, global = 2.66938733516273e-05, cumulative = 0.0002949309135482353
[INFO] postSolveP: 32.041 [ms]
smoothSolver:  Solving for nuTilda, Initial residual = 0.0232256582771329, Final residual = 0.001393448081134076, No Iterations 3
[INFO] TimeStep: 2575.847 [ms]
ExecutionTime = 124.63 s  ClockTime = 125 s

Time = 35

velocityDampingConstraint velocityDamping damped 0 (0%) of cells, with max limit 300
[INFO] MatrixAssemblyU: 796.952 [ms]
smoothSolver:  Solving for Ux, Initial residual = 0.01109837052279664, Final residual = 0.001086951881665273, No Iterations 12
smoothSolver:  Solving for Uy, Initial residual = 0.06206625401156429, Final residual = 0.006177644331141381, No Iterations 12
smoothSolver:  Solving for Uz, Initial residual = 0.05702741417844293, Final residual = 0.005571870605672873, No Iterations 12
[INFO] MomentumPredictor: 623.428 [ms]
[INFO] MatrixAssemblyPI: 112.601 [ms]
[INFO] MatrixAssemblyPII: 57.25 [ms]
GAMG:  Solving for p, Initial residual = 0.05366045855013211, Final residual = 0.0003156265084390829, No Iterations 6
[INFO] SolveP: 474.661 [ms]
time step continuity errors : sum local = 0.003100554231126098, global = 2.800075742852626e-05, cumulative = 0.0003229316709767616
[INFO] postSolveP: 32.236 [ms]
smoothSolver:  Solving for nuTilda, Initial residual = 0.01501737617157703, Final residual = 0.001382342198532952, No Iterations 3
[INFO] TimeStep: 2573.908 [ms]
ExecutionTime = 127.84 s  ClockTime = 128 s

Time = 36

velocityDampingConstraint velocityDamping damped 0 (0%) of cells, with max limit 300
[INFO] MatrixAssemblyU: 797.409 [ms]
smoothSolver:  Solving for Ux, Initial residual = 0.01137218458501787, Final residual = 0.001108087637734155, No Iterations 12
smoothSolver:  Solving for Uy, Initial residual = 0.06423966055538853, Final residual = 0.005538392236056484, No Iterations 13
smoothSolver:  Solving for Uz, Initial residual = 0.05962532666739844, Final residual = 0.005825060008943514, No Iterations 12
[INFO] MomentumPredictor: 640.52 [ms]
[INFO] MatrixAssemblyPI: 113.548 [ms]
[INFO] MatrixAssemblyPII: 57.353 [ms]
GAMG:  Solving for p, Initial residual = 0.05519333897611167, Final residual = 0.0005217182252507636, No Iterations 5
[INFO] SolveP: 400.732 [ms]
time step continuity errors : sum local = 0.005158308947710587, global = 4.034639359314639e-05, cumulative = 0.0003632780645699079
[INFO] postSolveP: 31.594 [ms]
smoothSolver:  Solving for nuTilda, Initial residual = 0.0218086620171391, Final residual = 0.001307321223750449, No Iterations 3
[INFO] TimeStep: 2516.934 [ms]
ExecutionTime = 131 s  ClockTime = 131 s

Time = 37

velocityDampingConstraint velocityDamping damped 0 (0%) of cells, with max limit 300
[INFO] MatrixAssemblyU: 796.818 [ms]
smoothSolver:  Solving for Ux, Initial residual = 0.01158879495470287, Final residual = 0.001134546079779391, No Iterations 12
smoothSolver:  Solving for Uy, Initial residual = 0.06585006303444682, Final residual = 0.005761672116386112, No Iterations 13
smoothSolver:  Solving for Uz, Initial residual = 0.06219976736338338, Final residual = 0.006049354159053689, No Iterations 12
[INFO] MomentumPredictor: 635.3579999999999 [ms]
[INFO] MatrixAssemblyPI: 114.288 [ms]
[INFO] MatrixAssemblyPII: 57.419 [ms]
GAMG:  Solving for p, Initial residual = 0.05698767114461857, Final residual = 0.0005518830426758332, No Iterations 5
[INFO] SolveP: 400.021 [ms]
time step continuity errors : sum local = 0.005493697057519236, global = 4.718346280863492e-05, cumulative = 0.0004104615273785428
[INFO] postSolveP: 31.664 [ms]
smoothSolver:  Solving for nuTilda, Initial residual = 0.01419323519062603, Final residual = 0.0012951136169526, No Iterations 3
[INFO] TimeStep: 2511.35 [ms]
ExecutionTime = 134.15 s  ClockTime = 135 s

Time = 38

velocityDampingConstraint velocityDamping damped 0 (0%) of cells, with max limit 300
[INFO] MatrixAssemblyU: 797.4109999999999 [ms]
smoothSolver:  Solving for Ux, Initial residual = 0.01190576943786641, Final residual = 0.001157888007949329, No Iterations 12
smoothSolver:  Solving for Uy, Initial residual = 0.06736833865159678, Final residual = 0.005949015180079119, No Iterations 13
smoothSolver:  Solving for Uz, Initial residual = 0.06497273700334974, Final residual = 0.006247033924781217, No Iterations 12
[INFO] MomentumPredictor: 637.163 [ms]
[INFO] MatrixAssemblyPI: 114.673 [ms]
[INFO] MatrixAssemblyPII: 57.18 [ms]
GAMG:  Solving for p, Initial residual = 0.05776463505201408, Final residual = 0.0005700324241877213, No Iterations 5
[INFO] SolveP: 400.9 [ms]
time step continuity errors : sum local = 0.005703057011427562, global = 4.188387084982065e-05, cumulative = 0.0004523453982283635
[INFO] postSolveP: 31.588 [ms]
smoothSolver:  Solving for nuTilda, Initial residual = 0.02057631711611763, Final residual = 0.001231284601042593, No Iterations 3
[INFO] TimeStep: 2514.98 [ms]
ExecutionTime = 137.31 s  ClockTime = 138 s

Time = 39

velocityDampingConstraint velocityDamping damped 0 (0%) of cells, with max limit 300
[INFO] MatrixAssemblyU: 795.127 [ms]
smoothSolver:  Solving for Ux, Initial residual = 0.01199618299268239, Final residual = 0.001170528167864723, No Iterations 12
smoothSolver:  Solving for Uy, Initial residual = 0.0688419979022464, Final residual = 0.006113996078257826, No Iterations 13
smoothSolver:  Solving for Uz, Initial residual = 0.06744518747675322, Final residual = 0.006464548598774602, No Iterations 12
[INFO] MomentumPredictor: 637.471 [ms]
[INFO] MatrixAssemblyPI: 112.751 [ms]
[INFO] MatrixAssemblyPII: 57.374 [ms]
GAMG:  Solving for p, Initial residual = 0.05796890643937612, Final residual = 0.0003408969316268948, No Iterations 6
[INFO] SolveP: 476.298 [ms]
time step continuity errors : sum local = 0.00342346301286537, global = 3.109623369166844e-05, cumulative = 0.0004834416319200319
[INFO] postSolveP: 32.499 [ms]
smoothSolver:  Solving for nuTilda, Initial residual = 0.01352767655689233, Final residual = 0.001220679439743193, No Iterations 3
[INFO] TimeStep: 2588.905 [ms]
ExecutionTime = 140.53 s  ClockTime = 141 s

Time = 40

velocityDampingConstraint velocityDamping damped 0 (0%) of cells, with max limit 300
[INFO] MatrixAssemblyU: 796.514 [ms]
smoothSolver:  Solving for Ux, Initial residual = 0.01213096800638323, Final residual = 0.001181224030343799, No Iterations 12
smoothSolver:  Solving for Uy, Initial residual = 0.0700370827033128, Final residual = 0.00628146716254788, No Iterations 13
smoothSolver:  Solving for Uz, Initial residual = 0.06919379487974622, Final residual = 0.006701785143196639, No Iterations 12
[INFO] MomentumPredictor: 636.756 [ms]
[INFO] MatrixAssemblyPI: 113.441 [ms]
[INFO] MatrixAssemblyPII: 57.103 [ms]
GAMG:  Solving for p, Initial residual = 0.05806923340303692, Final residual = 0.0005574677079323384, No Iterations 5
[INFO] SolveP: 400.753 [ms]
time step continuity errors : sum local = 0.005605378393422254, global = 2.01801462952085e-05, cumulative = 0.0005036217782152404
[INFO] postSolveP: 31.622 [ms]
smoothSolver:  Solving for nuTilda, Initial residual = 0.01947173671561722, Final residual = 0.001166968984594439, No Iterations 3
[INFO] TimeStep: 2511.44 [ms]
ExecutionTime = 143.69 s  ClockTime = 144 s

Time = 41

velocityDampingConstraint velocityDamping damped 0 (0%) of cells, with max limit 300
[INFO] MatrixAssemblyU: 794.734 [ms]
smoothSolver:  Solving for Ux, Initial residual = 0.01205229034487446, Final residual = 0.001188974802879307, No Iterations 12
smoothSolver:  Solving for Uy, Initial residual = 0.07052085366306922, Final residual = 0.006420994667655097, No Iterations 13
smoothSolver:  Solving for Uz, Initial residual = 0.07023521975645662, Final residual = 0.00689061530216509, No Iterations 12
[INFO] MomentumPredictor: 635.126 [ms]
[INFO] MatrixAssemblyPI: 112.891 [ms]
[INFO] MatrixAssemblyPII: 57.044 [ms]
GAMG:  Solving for p, Initial residual = 0.0574981443333467, Final residual = 0.0005234856745999293, No Iterations 5
[INFO] SolveP: 399.871 [ms]
time step continuity errors : sum local = 0.00526139009736056, global = 1.718681299889799e-05, cumulative = 0.0005208085912141384
[INFO] postSolveP: 31.543 [ms]
smoothSolver:  Solving for nuTilda, Initial residual = 0.01294185900368109, Final residual = 0.001158309441876396, No Iterations 3
[INFO] TimeStep: 2507.118 [ms]
ExecutionTime = 146.82 s  ClockTime = 147 s

Time = 42

velocityDampingConstraint velocityDamping damped 0 (0%) of cells, with max limit 300
[INFO] MatrixAssemblyU: 796.646 [ms]
smoothSolver:  Solving for Ux, Initial residual = 0.01209638239860247, Final residual = 0.001196000587275153, No Iterations 12
smoothSolver:  Solving for Uy, Initial residual = 0.07104370650548852, Final residual = 0.006610003767641968, No Iterations 13
smoothSolver:  Solving for Uz, Initial residual = 0.07080911078748135, Final residual = 0.007071405362594156, No Iterations 12
[INFO] MomentumPredictor: 634.559 [ms]
[INFO] MatrixAssemblyPI: 112.594 [ms]
[INFO] MatrixAssemblyPII: 57.265 [ms]
GAMG:  Solving for p, Initial residual = 0.05703810499710074, Final residual = 0.0004914601995215911, No Iterations 5
[INFO] SolveP: 405.191 [ms]
time step continuity errors : sum local = 0.00492617581020872, global = 9.721116624082777e-06, cumulative = 0.0005305297078382212
[INFO] postSolveP: 31.647 [ms]
smoothSolver:  Solving for nuTilda, Initial residual = 0.01846180661724399, Final residual = 0.001111840752169586, No Iterations 3
[INFO] TimeStep: 2513.312 [ms]
ExecutionTime = 149.98 s  ClockTime = 151 s

Time = 43

velocityDampingConstraint velocityDamping damped 0 (0%) of cells, with max limit 300
[INFO] MatrixAssemblyU: 795.933 [ms]
smoothSolver:  Solving for Ux, Initial residual = 0.01200145476906189, Final residual = 0.001024153008001292, No Iterations 13
smoothSolver:  Solving for Uy, Initial residual = 0.07174228687096514, Final residual = 0.006825512884058945, No Iterations 13
smoothSolver:  Solving for Uz, Initial residual = 0.07071416033104082, Final residual = 0.006135518358902033, No Iterations 13
[INFO] MomentumPredictor: 666.752 [ms]
[INFO] MatrixAssemblyPI: 112.354 [ms]
[INFO] MatrixAssemblyPII: 57.014 [ms]
GAMG:  Solving for p, Initial residual = 0.05645677139388094, Final residual = 0.0005035917849578204, No Iterations 5
[INFO] SolveP: 402.331 [ms]
time step continuity errors : sum local = 0.005022609732386735, global = -4.619943980631582e-06, cumulative = 0.0005259097638575896
[INFO] postSolveP: 31.642 [ms]
smoothSolver:  Solving for nuTilda, Initial residual = 0.01235882789623204, Final residual = 0.001102446402704237, No Iterations 3
[INFO] TimeStep: 2541.456 [ms]
ExecutionTime = 153.16 s  ClockTime = 154 s

Time = 44

velocityDampingConstraint velocityDamping damped 0 (0%) of cells, with max limit 300
[INFO] MatrixAssemblyU: 797.529 [ms]
smoothSolver:  Solving for Ux, Initial residual = 0.01202026330399441, Final residual = 0.001032647354303152, No Iterations 13
smoothSolver:  Solving for Uy, Initial residual = 0.07218608472505644, Final residual = 0.007031188630058529, No Iterations 13
smoothSolver:  Solving for Uz, Initial residual = 0.07001804944565392, Final residual = 0.006202259349273954, No Iterations 13
[INFO] MomentumPredictor: 666.689 [ms]
[INFO] MatrixAssemblyPI: 112.905 [ms]
[INFO] MatrixAssemblyPII: 57.354 [ms]
GAMG:  Solving for p, Initial residual = 0.05587383768676545, Final residual = 0.0005106534760925719, No Iterations 5
[INFO] SolveP: 401.154 [ms]
time step continuity errors : sum local = 0.005046968370392085, global = -1.269776516719176e-05, cumulative = 0.0005132119986903978
[INFO] postSolveP: 31.766 [ms]
smoothSolver:  Solving for nuTilda, Initial residual = 0.01752226431066163, Final residual = 0.001059882832416796, No Iterations 3
[INFO] TimeStep: 2543.116 [ms]
ExecutionTime = 156.35 s  ClockTime = 157 s

Time = 45

velocityDampingConstraint velocityDamping damped 0 (0%) of cells, with max limit 300
[INFO] MatrixAssemblyU: 796.989 [ms]
smoothSolver:  Solving for Ux, Initial residual = 0.01188523837386004, Final residual = 0.001041499031740775, No Iterations 13
smoothSolver:  Solving for Uy, Initial residual = 0.07230440218251256, Final residual = 0.007160431306693305, No Iterations 13
smoothSolver:  Solving for Uz, Initial residual = 0.06910093975649605, Final residual = 0.006254709503284606, No Iterations 13
[INFO] MomentumPredictor: 664.83 [ms]
[INFO] MatrixAssemblyPI: 112.543 [ms]
[INFO] MatrixAssemblyPII: 56.985 [ms]
GAMG:  Solving for p, Initial residual = 0.05545934019171792, Final residual = 0.0005123637586048853, No Iterations 5
[INFO] SolveP: 400.371 [ms]
time step continuity errors : sum local = 0.0049964642398846, global = -2.988668533904377e-06, cumulative = 0.0005102233301564935
[INFO] postSolveP: 31.689 [ms]
smoothSolver:  Solving for nuTilda, Initial residual = 0.01179981719802069, Final residual = 0.001048782202770626, No Iterations 3
[INFO] TimeStep: 2539.223 [ms]
ExecutionTime = 159.53 s  ClockTime = 160 s

Time = 46

velocityDampingConstraint velocityDamping damped 0 (0%) of cells, with max limit 300
[INFO] MatrixAssemblyU: 798.665 [ms]
smoothSolver:  Solving for Ux, Initial residual = 0.01174964090486168, Final residual = 0.001045053865089406, No Iterations 13
smoothSolver:  Solving for Uy, Initial residual = 0.07221478075545315, Final residual = 0.006168685533613544, No Iterations 14
smoothSolver:  Solving for Uz, Initial residual = 0.06782096821966944, Final residual = 0.006301716259382988, No Iterations 13
[INFO] MomentumPredictor: 679.414 [ms]
[INFO] MatrixAssemblyPI: 113.044 [ms]
[INFO] MatrixAssemblyPII: 57.19 [ms]
GAMG:  Solving for p, Initial residual = 0.05472547354951709, Final residual = 0.0005203866546977001, No Iterations 5
[INFO] SolveP: 401.519 [ms]
time step continuity errors : sum local = 0.00502644706978635, global = 1.227193142560491e-05, cumulative = 0.0005224952615820984
[INFO] postSolveP: 31.938 [ms]
smoothSolver:  Solving for nuTilda, Initial residual = 0.01663883925194296, Final residual = 0.001010952651270117, No Iterations 3
[INFO] TimeStep: 2558.027 [ms]
ExecutionTime = 162.73 s  ClockTime = 163 s

Time = 47

velocityDampingConstraint velocityDamping damped 0 (0%) of cells, with max limit 300
[INFO] MatrixAssemblyU: 798.056 [ms]
smoothSolver:  Solving for Ux, Initial residual = 0.01150094973579895, Final residual = 0.001048812428476341, No Iterations 13
smoothSolver:  Solving for Uy, Initial residual = 0.07176143754408605, Final residual = 0.006163609680499537, No Iterations 14
smoothSolver:  Solving for Uz, Initial residual = 0.06644934729458558, Final residual = 0.006336622154754983, No Iterations 13
[INFO] MomentumPredictor: 682.89 [ms]
[INFO] MatrixAssemblyPI: 112.798 [ms]
[INFO] MatrixAssemblyPII: 57.072 [ms]
GAMG:  Solving for p, Initial residual = 0.05401736167489758, Final residual = 0.0005116236929918872, No Iterations 5
[INFO] SolveP: 401.18 [ms]
time step continuity errors : sum local = 0.004911888320775605, global = 2.715745507051537e-05, cumulative = 0.0005496527166526137
[INFO] postSolveP: 31.721 [ms]
smoothSolver:  Solving for nuTilda, Initial residual = 0.0112759601510019, Final residual = 0.001001017224102705, No Iterations 3
[INFO] TimeStep: 2559.526 [ms]
ExecutionTime = 165.93 s  ClockTime = 167 s

Time = 48

velocityDampingConstraint velocityDamping damped 0 (0%) of cells, with max limit 300
[INFO] MatrixAssemblyU: 797.484 [ms]
smoothSolver:  Solving for Ux, Initial residual = 0.01145595163436341, Final residual = 0.001053716821598044, No Iterations 13
smoothSolver:  Solving for Uy, Initial residual = 0.07138892664128184, Final residual = 0.006152828863886925, No Iterations 14
smoothSolver:  Solving for Uz, Initial residual = 0.06521302220680031, Final residual = 0.006324907462267246, No Iterations 13
[INFO] MomentumPredictor: 679.366 [ms]
[INFO] MatrixAssemblyPI: 112.93 [ms]
[INFO] MatrixAssemblyPII: 57.229 [ms]
GAMG:  Solving for p, Initial residual = 0.05320568724058309, Final residual = 0.0005121497121228554, No Iterations 5
[INFO] SolveP: 401.798 [ms]
time step continuity errors : sum local = 0.004885414584616271, global = 2.628444660910599e-05, cumulative = 0.0005759371632617198
[INFO] postSolveP: 31.76 [ms]
smoothSolver:  Solving for nuTilda, Initial residual = 0.01585378126826669, Final residual = 0.000969414357641605, No Iterations 3
[INFO] TimeStep: 2555.335 [ms]
ExecutionTime = 169.13 s  ClockTime = 170 s

Time = 49

velocityDampingConstraint velocityDamping damped 0 (0%) of cells, with max limit 300
[INFO] MatrixAssemblyU: 798.4640000000001 [ms]
smoothSolver:  Solving for Ux, Initial residual = 0.01135164402425046, Final residual = 0.001057214771675563, No Iterations 13
smoothSolver:  Solving for Uy, Initial residual = 0.07073586002050911, Final residual = 0.00612770048738876, No Iterations 14
smoothSolver:  Solving for Uz, Initial residual = 0.0641505563261459, Final residual = 0.006298629644841906, No Iterations 13
[INFO] MomentumPredictor: 678.655 [ms]
[INFO] MatrixAssemblyPI: 112.433 [ms]
[INFO] MatrixAssemblyPII: 57.651 [ms]
GAMG:  Solving for p, Initial residual = 0.05256049786675844, Final residual = 0.0005231507380591822, No Iterations 5
[INFO] SolveP: 400.863 [ms]
time step continuity errors : sum local = 0.00495865929944772, global = 1.244570924824835e-05, cumulative = 0.0005883828725099682
[INFO] postSolveP: 32.938 [ms]
smoothSolver:  Solving for nuTilda, Initial residual = 0.01083868325947884, Final residual = 0.0009629907752451823, No Iterations 3
[INFO] TimeStep: 2557.2 [ms]
ExecutionTime = 172.33 s  ClockTime = 173 s

Time = 50

velocityDampingConstraint velocityDamping damped 0 (0%) of cells, with max limit 300
[INFO] MatrixAssemblyU: 796.734 [ms]
smoothSolver:  Solving for Ux, Initial residual = 0.01134998013430932, Final residual = 0.001057577839099357, No Iterations 13
smoothSolver:  Solving for Uy, Initial residual = 0.06975473034161578, Final residual = 0.006060680043623464, No Iterations 14
smoothSolver:  Solving for Uz, Initial residual = 0.06320997900880611, Final residual = 0.006263402269498295, No Iterations 13
[INFO] MomentumPredictor: 680.4 [ms]
[INFO] MatrixAssemblyPI: 112.48 [ms]
[INFO] MatrixAssemblyPII: 57.102 [ms]
GAMG:  Solving for p, Initial residual = 0.052335781902013, Final residual = 0.0003089310653073394, No Iterations 6
[INFO] SolveP: 475.182 [ms]
time step continuity errors : sum local = 0.002907120899513289, global = -6.030468487303106e-06, cumulative = 0.0005823524040226651
[INFO] postSolveP: 32.22 [ms]
smoothSolver:  Solving for nuTilda, Initial residual = 0.01517125897693626, Final residual = 0.0009371989609679697, No Iterations 3
[INFO] TimeStep: 2628.627 [ms]
ExecutionTime = 175.6 s  ClockTime = 176 s

End

Finalising parallel run
