/*---------------------------------------------------------------------------*\
| =========                 |                                                 |
| \\      /  F ield         | OpenFOAM: The Open Source CFD Toolbox           |
|  \\    /   O peration     | Version:  2312                                  |
|   \\  /    A nd           | Website:  www.openfoam.com                      |
|    \\/     M anipulation  |                                                 |
\*---------------------------------------------------------------------------*/
Build  : a46b310f-20240104 OPENFOAM=2312 version=v2312
Arch   : "LSB;label=32;scalar=64"
Exec   : decomposePar -force
Date   : Feb 16 2024
Time   : 21:35:35
Host   : i20r02c03s08
PID    : 11215
--> FOAM Warning : 
    From Foam::fileName Foam::cwd_L()
    in file POSIX.C at line 552
    PWD is not the cwd() - reverting to physical description
I/O    : uncollated
--> FOAM Warning : 
    From Foam::fileName Foam::cwd_L()
    in file POSIX.C at line 552
    PWD is not the cwd() - reverting to physical description
Case   : /hppfs/scratch/0B/di35yan/lidDriven3D/workspace/f4baa2359a8b49f18cf5441aab789395/case
nProcs : 1
trapFpe: Floating point exception trapping enabled (FOAM_SIGFPE).
fileModificationChecking : Monitoring run-time modified files using timeStampMaster (fileModificationSkew 5, maxFileModificationPolls 20)
allowSystemOperations : Allowing user-supplied system call operations

// * * * * * * * * * * * * * * * * * * * * * * * * * * * * * * * * * * * * * //
Create time

--> FOAM Warning : 
    From void* Foam::dlLibraryTable::openLibrary(const Foam::fileName&, bool)
    in file db/dynamicLibrary/dlLibraryTable/dlLibraryTable.C at line 188
    Could not load "libpetscFoam.so"
libpetscFoam.so: cannot open shared object file: No such file or directory


Decomposing mesh

Create mesh

Calculating distribution of cells
Decomposition method simple [72] (region region0)

Finished decomposition in 0.46 s

Calculating original mesh data

Distributing cells to processors

Distributing faces to processors

Distributing points to processors

Constructing processor meshes

Processor 0
    Number of cells = 13750
    Number of points = 15912
    Number of faces shared with processor 1 = 550
    Number of faces shared with processor 4 = 275
    Number of faces shared with processor 8 = 1250
    Number of processor patches = 3
    Number of processor faces = 2075
    Number of boundary faces = 2075

Processor 1
    Number of cells = 13750
    Number of points = 15912
    Number of faces shared with processor 0 = 550
    Number of faces shared with processor 2 = 550
    Number of faces shared with processor 5 = 275
    Number of faces shared with processor 9 = 1250
    Number of processor patches = 4
    Number of processor faces = 2625
    Number of boundary faces = 1525

Processor 2
    Number of cells = 13750
    Number of points = 15912
    Number of faces shared with processor 1 = 550
    Number of faces shared with processor 3 = 550
    Number of faces shared with processor 6 = 275
    Number of faces shared with processor 10 = 1250
    Number of processor patches = 4
    Number of processor faces = 2625
    Number of boundary faces = 1525

Processor 3
    Number of cells = 13750
    Number of points = 15912
    Number of faces shared with processor 2 = 550
    Number of faces shared with processor 7 = 275
    Number of faces shared with processor 11 = 1250
    Number of processor patches = 3
    Number of processor faces = 2075
    Number of boundary faces = 2075

Processor 4
    Number of cells = 14431
    Number of points = 16652
    Number of faces shared with processor 0 = 275
    Number of faces shared with processor 5 = 571
    Number of faces shared with processor 12 = 1287
    Number of processor patches = 3
    Number of processor faces = 2133
    Number of boundary faces = 2133

Processor 5
    Number of cells = 14117
    Number of points = 16326
    Number of faces shared with processor 1 = 275
    Number of faces shared with processor 4 = 571
    Number of faces shared with processor 6 = 558
    Number of faces shared with processor 13 = 1288
    Number of processor patches = 4
    Number of processor faces = 2692
    Number of boundary faces = 1550

Processor 6
    Number of cells = 13814
    Number of points = 16000
    Number of faces shared with processor 2 = 275
    Number of faces shared with processor 5 = 558
    Number of faces shared with processor 7 = 550
    Number of faces shared with processor 14 = 1273
    Number of processor patches = 4
    Number of processor faces = 2656
    Number of boundary faces = 1540

Processor 7
    Number of cells = 13750
    Number of points = 15912
    Number of faces shared with processor 3 = 275
    Number of faces shared with processor 6 = 550
    Number of faces shared with processor 15 = 1250
    Number of processor patches = 3
    Number of processor faces = 2075
    Number of boundary faces = 2075

Processor 8
    Number of cells = 13750
    Number of points = 15912
    Number of faces shared with processor 0 = 1250
    Number of faces shared with processor 9 = 550
    Number of faces shared with processor 12 = 275
    Number of faces shared with processor 16 = 1250
    Number of processor patches = 4
    Number of processor faces = 3325
    Number of boundary faces = 825

Processor 9
    Number of cells = 13750
    Number of points = 15912
    Number of faces shared with processor 1 = 1250
    Number of faces shared with processor 8 = 550
    Number of faces shared with processor 10 = 550
    Number of faces shared with processor 13 = 275
    Number of faces shared with processor 17 = 1250
    Number of processor patches = 5
    Number of processor faces = 3875
    Number of boundary faces = 275

Processor 10
    Number of cells = 13750
    Number of points = 15912
    Number of faces shared with processor 2 = 1250
    Number of faces shared with processor 9 = 550
    Number of faces shared with processor 11 = 550
    Number of faces shared with processor 14 = 275
    Number of faces shared with processor 18 = 1250
    Number of processor patches = 5
    Number of processor faces = 3875
    Number of boundary faces = 275

Processor 11
    Number of cells = 13750
    Number of points = 15912
    Number of faces shared with processor 3 = 1250
    Number of faces shared with processor 10 = 550
    Number of faces shared with processor 15 = 275
    Number of faces shared with processor 19 = 1250
    Number of processor patches = 4
    Number of processor faces = 3325
    Number of boundary faces = 825

Processor 12
    Number of cells = 14100
    Number of points = 16314
    Number of faces shared with processor 4 = 1287
    Number of faces shared with processor 8 = 275
    Number of faces shared with processor 13 = 564
    Number of faces shared with processor 20 = 1287
    Number of processor patches = 4
    Number of processor faces = 3413
    Number of boundary faces = 839

Processor 13
    Number of cells = 14091
    Number of points = 16306
    Number of faces shared with processor 5 = 1288
    Number of faces shared with processor 9 = 275
    Number of faces shared with processor 12 = 564
    Number of faces shared with processor 14 = 564
    Number of faces shared with processor 21 = 1288
    Number of processor patches = 5
    Number of processor faces = 3979
    Number of boundary faces = 275

Processor 14
    Number of cells = 14080
    Number of points = 16290
    Number of faces shared with processor 6 = 1273
    Number of faces shared with processor 10 = 275
    Number of faces shared with processor 13 = 564
    Number of faces shared with processor 15 = 559
    Number of faces shared with processor 22 = 1287
    Number of faces shared with processor 23 = 1
    Number of processor patches = 6
    Number of processor faces = 3959
    Number of boundary faces = 285

Processor 15
    Number of cells = 13840
    Number of points = 16030
    Number of faces shared with processor 7 = 1250
    Number of faces shared with processor 11 = 275
    Number of faces shared with processor 14 = 559
    Number of faces shared with processor 23 = 1277
    Number of processor patches = 4
    Number of processor faces = 3361
    Number of boundary faces = 843

Processor 16
    Number of cells = 13822
    Number of points = 16009
    Number of faces shared with processor 8 = 1250
    Number of faces shared with processor 17 = 550
    Number of faces shared with processor 20 = 291
    Number of faces shared with processor 24 = 1274
    Number of processor patches = 4
    Number of processor faces = 3365
    Number of boundary faces = 833

Processor 17
    Number of cells = 13750
    Number of points = 15912
    Number of faces shared with processor 9 = 1250
    Number of faces shared with processor 16 = 550
    Number of faces shared with processor 18 = 550
    Number of faces shared with processor 21 = 275
    Number of faces shared with processor 25 = 1250
    Number of processor patches = 5
    Number of processor faces = 3875
    Number of boundary faces = 275

Processor 18
    Number of cells = 13750
    Number of points = 15912
    Number of faces shared with processor 10 = 1250
    Number of faces shared with processor 17 = 550
    Number of faces shared with processor 19 = 550
    Number of faces shared with processor 22 = 275
    Number of faces shared with processor 26 = 1250
    Number of processor patches = 5
    Number of processor faces = 3875
    Number of boundary faces = 275

Processor 19
    Number of cells = 13750
    Number of points = 15912
    Number of faces shared with processor 11 = 1250
    Number of faces shared with processor 18 = 550
    Number of faces shared with processor 23 = 275
    Number of faces shared with processor 27 = 1250
    Number of processor patches = 4
    Number of processor faces = 3325
    Number of boundary faces = 825

Processor 20
    Number of cells = 13953
    Number of points = 16156
    Number of faces shared with processor 12 = 1287
    Number of faces shared with processor 16 = 291
    Number of faces shared with processor 21 = 561
    Number of faces shared with processor 24 = 2
    Number of faces shared with processor 28 = 1261
    Number of processor patches = 5
    Number of processor faces = 3402
    Number of boundary faces = 828

Processor 21
    Number of cells = 14036
    Number of points = 16248
    Number of faces shared with processor 13 = 1288
    Number of faces shared with processor 17 = 275
    Number of faces shared with processor 20 = 561
    Number of faces shared with processor 22 = 561
    Number of faces shared with processor 29 = 1287
    Number of faces shared with processor 30 = 1
    Number of processor patches = 6
    Number of processor faces = 3973
    Number of boundary faces = 275

Processor 22
    Number of cells = 14034
    Number of points = 16245
    Number of faces shared with processor 14 = 1287
    Number of faces shared with processor 18 = 275
    Number of faces shared with processor 21 = 561
    Number of faces shared with processor 23 = 560
    Number of faces shared with processor 30 = 1287
    Number of faces shared with processor 31 = 1
    Number of processor patches = 6
    Number of processor faces = 3971
    Number of boundary faces = 275

Processor 23
    Number of cells = 14016
    Number of points = 16224
    Number of faces shared with processor 14 = 1
    Number of faces shared with processor 15 = 1277
    Number of faces shared with processor 19 = 275
    Number of faces shared with processor 22 = 560
    Number of faces shared with processor 31 = 1287
    Number of processor patches = 5
    Number of processor faces = 3400
    Number of boundary faces = 840

Processor 24
    Number of cells = 14009
    Number of points = 16216
    Number of faces shared with processor 16 = 1274
    Number of faces shared with processor 20 = 2
    Number of faces shared with processor 25 = 557
    Number of faces shared with processor 28 = 282
    Number of faces shared with processor 32 = 1287
    Number of processor patches = 5
    Number of processor faces = 3402
    Number of boundary faces = 836

Processor 25
    Number of cells = 13799
    Number of points = 15982
    Number of faces shared with processor 17 = 1250
    Number of faces shared with processor 24 = 557
    Number of faces shared with processor 26 = 550
    Number of faces shared with processor 29 = 288
    Number of faces shared with processor 33 = 1270
    Number of processor patches = 5
    Number of processor faces = 3915
    Number of boundary faces = 275

Processor 26
    Number of cells = 13750
    Number of points = 15912
    Number of faces shared with processor 18 = 1250
    Number of faces shared with processor 25 = 550
    Number of faces shared with processor 27 = 550
    Number of faces shared with processor 30 = 275
    Number of faces shared with processor 34 = 1250
    Number of processor patches = 5
    Number of processor faces = 3875
    Number of boundary faces = 275

Processor 27
    Number of cells = 13750
    Number of points = 15912
    Number of faces shared with processor 19 = 1250
    Number of faces shared with processor 26 = 550
    Number of faces shared with processor 31 = 275
    Number of faces shared with processor 35 = 1250
    Number of processor patches = 4
    Number of processor faces = 3325
    Number of boundary faces = 825

Processor 28
    Number of cells = 13766
    Number of points = 15940
    Number of faces shared with processor 20 = 1261
    Number of faces shared with processor 24 = 282
    Number of faces shared with processor 29 = 554
    Number of faces shared with processor 36 = 1250
    Number of processor patches = 4
    Number of processor faces = 3347
    Number of boundary faces = 825

Processor 29
    Number of cells = 13976
    Number of points = 16180
    Number of faces shared with processor 21 = 1287
    Number of faces shared with processor 25 = 288
    Number of faces shared with processor 28 = 554
    Number of faces shared with processor 30 = 560
    Number of faces shared with processor 33 = 2
    Number of faces shared with processor 37 = 1265
    Number of faces shared with processor 38 = 1
    Number of processor patches = 7
    Number of processor faces = 3957
    Number of boundary faces = 275

Processor 30
    Number of cells = 14028
    Number of points = 16239
    Number of faces shared with processor 21 = 1
    Number of faces shared with processor 22 = 1287
    Number of faces shared with processor 26 = 275
    Number of faces shared with processor 29 = 560
    Number of faces shared with processor 31 = 561
    Number of faces shared with processor 38 = 1287
    Number of processor patches = 6
    Number of processor faces = 3971
    Number of boundary faces = 275

Processor 31
    Number of cells = 14033
    Number of points = 16245
    Number of faces shared with processor 22 = 1
    Number of faces shared with processor 23 = 1287
    Number of faces shared with processor 27 = 275
    Number of faces shared with processor 30 = 561
    Number of faces shared with processor 39 = 1288
    Number of processor patches = 5
    Number of processor faces = 3412
    Number of boundary faces = 836

Processor 32
    Number of cells = 14031
    Number of points = 16243
    Number of faces shared with processor 24 = 1287
    Number of faces shared with processor 33 = 561
    Number of faces shared with processor 36 = 275
    Number of faces shared with processor 40 = 1288
    Number of processor patches = 4
    Number of processor faces = 3411
    Number of boundary faces = 837

Processor 33
    Number of cells = 13995
    Number of points = 16201
    Number of faces shared with processor 25 = 1270
    Number of faces shared with processor 29 = 2
    Number of faces shared with processor 32 = 561
    Number of faces shared with processor 34 = 555
    Number of faces shared with processor 37 = 285
    Number of faces shared with processor 41 = 1287
    Number of faces shared with processor 42 = 1
    Number of processor patches = 7
    Number of processor faces = 3961
    Number of boundary faces = 275

Processor 34
    Number of cells = 13780
    Number of points = 15958
    Number of faces shared with processor 26 = 1250
    Number of faces shared with processor 33 = 555
    Number of faces shared with processor 35 = 550
    Number of faces shared with processor 38 = 285
    Number of faces shared with processor 42 = 1265
    Number of processor patches = 5
    Number of processor faces = 3905
    Number of boundary faces = 275

Processor 35
    Number of cells = 13750
    Number of points = 15912
    Number of faces shared with processor 27 = 1250
    Number of faces shared with processor 34 = 550
    Number of faces shared with processor 39 = 275
    Number of faces shared with processor 43 = 1250
    Number of processor patches = 4
    Number of processor faces = 3325
    Number of boundary faces = 825

Processor 36
    Number of cells = 13750
    Number of points = 15912
    Number of faces shared with processor 28 = 1250
    Number of faces shared with processor 32 = 275
    Number of faces shared with processor 37 = 550
    Number of faces shared with processor 44 = 1250
    Number of processor patches = 4
    Number of processor faces = 3325
    Number of boundary faces = 825

Processor 37
    Number of cells = 13780
    Number of points = 15958
    Number of faces shared with processor 29 = 1265
    Number of faces shared with processor 33 = 285
    Number of faces shared with processor 36 = 550
    Number of faces shared with processor 38 = 555
    Number of faces shared with processor 45 = 1250
    Number of processor patches = 5
    Number of processor faces = 3905
    Number of boundary faces = 275

Processor 38
    Number of cells = 13995
    Number of points = 16201
    Number of faces shared with processor 29 = 1
    Number of faces shared with processor 30 = 1287
    Number of faces shared with processor 34 = 285
    Number of faces shared with processor 37 = 555
    Number of faces shared with processor 39 = 561
    Number of faces shared with processor 42 = 2
    Number of faces shared with processor 46 = 1270
    Number of processor patches = 7
    Number of processor faces = 3961
    Number of boundary faces = 275

Processor 39
    Number of cells = 14030
    Number of points = 16242
    Number of faces shared with processor 31 = 1288
    Number of faces shared with processor 35 = 275
    Number of faces shared with processor 38 = 561
    Number of faces shared with processor 47 = 1287
    Number of processor patches = 4
    Number of processor faces = 3411
    Number of boundary faces = 837

Processor 40
    Number of cells = 14032
    Number of points = 16244
    Number of faces shared with processor 32 = 1288
    Number of faces shared with processor 41 = 561
    Number of faces shared with processor 44 = 275
    Number of faces shared with processor 48 = 1287
    Number of faces shared with processor 49 = 1
    Number of processor patches = 5
    Number of processor faces = 3412
    Number of boundary faces = 836

Processor 41
    Number of cells = 14029
    Number of points = 16240
    Number of faces shared with processor 33 = 1287
    Number of faces shared with processor 40 = 561
    Number of faces shared with processor 42 = 560
    Number of faces shared with processor 45 = 275
    Number of faces shared with processor 49 = 1287
    Number of faces shared with processor 50 = 1
    Number of processor patches = 6
    Number of processor faces = 3971
    Number of boundary faces = 275

Processor 42
    Number of cells = 13976
    Number of points = 16180
    Number of faces shared with processor 33 = 1
    Number of faces shared with processor 34 = 1265
    Number of faces shared with processor 38 = 2
    Number of faces shared with processor 41 = 560
    Number of faces shared with processor 43 = 554
    Number of faces shared with processor 46 = 288
    Number of faces shared with processor 50 = 1287
    Number of processor patches = 7
    Number of processor faces = 3957
    Number of boundary faces = 275

Processor 43
    Number of cells = 13766
    Number of points = 15940
    Number of faces shared with processor 35 = 1250
    Number of faces shared with processor 42 = 554
    Number of faces shared with processor 47 = 282
    Number of faces shared with processor 51 = 1261
    Number of processor patches = 4
    Number of processor faces = 3347
    Number of boundary faces = 825

Processor 44
    Number of cells = 13750
    Number of points = 15912
    Number of faces shared with processor 36 = 1250
    Number of faces shared with processor 40 = 275
    Number of faces shared with processor 45 = 550
    Number of faces shared with processor 52 = 1250
    Number of processor patches = 4
    Number of processor faces = 3325
    Number of boundary faces = 825

Processor 45
    Number of cells = 13750
    Number of points = 15912
    Number of faces shared with processor 37 = 1250
    Number of faces shared with processor 41 = 275
    Number of faces shared with processor 44 = 550
    Number of faces shared with processor 46 = 550
    Number of faces shared with processor 53 = 1250
    Number of processor patches = 5
    Number of processor faces = 3875
    Number of boundary faces = 275

Processor 46
    Number of cells = 13799
    Number of points = 15982
    Number of faces shared with processor 38 = 1270
    Number of faces shared with processor 42 = 288
    Number of faces shared with processor 45 = 550
    Number of faces shared with processor 47 = 557
    Number of faces shared with processor 54 = 1250
    Number of processor patches = 5
    Number of processor faces = 3915
    Number of boundary faces = 275

Processor 47
    Number of cells = 14009
    Number of points = 16216
    Number of faces shared with processor 39 = 1287
    Number of faces shared with processor 43 = 282
    Number of faces shared with processor 46 = 557
    Number of faces shared with processor 51 = 2
    Number of faces shared with processor 55 = 1274
    Number of processor patches = 5
    Number of processor faces = 3402
    Number of boundary faces = 836

Processor 48
    Number of cells = 14016
    Number of points = 16224
    Number of faces shared with processor 40 = 1287
    Number of faces shared with processor 49 = 560
    Number of faces shared with processor 52 = 275
    Number of faces shared with processor 56 = 1277
    Number of faces shared with processor 57 = 1
    Number of processor patches = 5
    Number of processor faces = 3400
    Number of boundary faces = 840

Processor 49
    Number of cells = 14033
    Number of points = 16244
    Number of faces shared with processor 40 = 1
    Number of faces shared with processor 41 = 1287
    Number of faces shared with processor 48 = 560
    Number of faces shared with processor 50 = 561
    Number of faces shared with processor 53 = 275
    Number of faces shared with processor 57 = 1287
    Number of processor patches = 6
    Number of processor faces = 3971
    Number of boundary faces = 275

Processor 50
    Number of cells = 14037
    Number of points = 16249
    Number of faces shared with processor 41 = 1
    Number of faces shared with processor 42 = 1287
    Number of faces shared with processor 49 = 561
    Number of faces shared with processor 51 = 561
    Number of faces shared with processor 54 = 275
    Number of faces shared with processor 58 = 1288
    Number of processor patches = 6
    Number of processor faces = 3973
    Number of boundary faces = 275

Processor 51
    Number of cells = 13953
    Number of points = 16156
    Number of faces shared with processor 43 = 1261
    Number of faces shared with processor 47 = 2
    Number of faces shared with processor 50 = 561
    Number of faces shared with processor 55 = 291
    Number of faces shared with processor 59 = 1287
    Number of processor patches = 5
    Number of processor faces = 3402
    Number of boundary faces = 828

Processor 52
    Number of cells = 13750
    Number of points = 15912
    Number of faces shared with processor 44 = 1250
    Number of faces shared with processor 48 = 275
    Number of faces shared with processor 53 = 550
    Number of faces shared with processor 60 = 1250
    Number of processor patches = 4
    Number of processor faces = 3325
    Number of boundary faces = 825

Processor 53
    Number of cells = 13750
    Number of points = 15912
    Number of faces shared with processor 45 = 1250
    Number of faces shared with processor 49 = 275
    Number of faces shared with processor 52 = 550
    Number of faces shared with processor 54 = 550
    Number of faces shared with processor 61 = 1250
    Number of processor patches = 5
    Number of processor faces = 3875
    Number of boundary faces = 275

Processor 54
    Number of cells = 13750
    Number of points = 15912
    Number of faces shared with processor 46 = 1250
    Number of faces shared with processor 50 = 275
    Number of faces shared with processor 53 = 550
    Number of faces shared with processor 55 = 550
    Number of faces shared with processor 62 = 1250
    Number of processor patches = 5
    Number of processor faces = 3875
    Number of boundary faces = 275

Processor 55
    Number of cells = 13822
    Number of points = 16009
    Number of faces shared with processor 47 = 1274
    Number of faces shared with processor 51 = 291
    Number of faces shared with processor 54 = 550
    Number of faces shared with processor 63 = 1250
    Number of processor patches = 4
    Number of processor faces = 3365
    Number of boundary faces = 833

Processor 56
    Number of cells = 13840
    Number of points = 16030
    Number of faces shared with processor 48 = 1277
    Number of faces shared with processor 57 = 559
    Number of faces shared with processor 60 = 275
    Number of faces shared with processor 64 = 1250
    Number of processor patches = 4
    Number of processor faces = 3361
    Number of boundary faces = 843

Processor 57
    Number of cells = 14080
    Number of points = 16290
    Number of faces shared with processor 48 = 1
    Number of faces shared with processor 49 = 1287
    Number of faces shared with processor 56 = 559
    Number of faces shared with processor 58 = 564
    Number of faces shared with processor 61 = 275
    Number of faces shared with processor 65 = 1273
    Number of processor patches = 6
    Number of processor faces = 3959
    Number of boundary faces = 285

Processor 58
    Number of cells = 14091
    Number of points = 16306
    Number of faces shared with processor 50 = 1288
    Number of faces shared with processor 57 = 564
    Number of faces shared with processor 59 = 564
    Number of faces shared with processor 62 = 275
    Number of faces shared with processor 66 = 1288
    Number of processor patches = 5
    Number of processor faces = 3979
    Number of boundary faces = 275

Processor 59
    Number of cells = 14100
    Number of points = 16314
    Number of faces shared with processor 51 = 1287
    Number of faces shared with processor 58 = 564
    Number of faces shared with processor 63 = 275
    Number of faces shared with processor 67 = 1287
    Number of processor patches = 4
    Number of processor faces = 3413
    Number of boundary faces = 839

Processor 60
    Number of cells = 13750
    Number of points = 15912
    Number of faces shared with processor 52 = 1250
    Number of faces shared with processor 56 = 275
    Number of faces shared with processor 61 = 550
    Number of faces shared with processor 68 = 1250
    Number of processor patches = 4
    Number of processor faces = 3325
    Number of boundary faces = 825

Processor 61
    Number of cells = 13750
    Number of points = 15912
    Number of faces shared with processor 53 = 1250
    Number of faces shared with processor 57 = 275
    Number of faces shared with processor 60 = 550
    Number of faces shared with processor 62 = 550
    Number of faces shared with processor 69 = 1250
    Number of processor patches = 5
    Number of processor faces = 3875
    Number of boundary faces = 275

Processor 62
    Number of cells = 13750
    Number of points = 15912
    Number of faces shared with processor 54 = 1250
    Number of faces shared with processor 58 = 275
    Number of faces shared with processor 61 = 550
    Number of faces shared with processor 63 = 550
    Number of faces shared with processor 70 = 1250
    Number of processor patches = 5
    Number of processor faces = 3875
    Number of boundary faces = 275

Processor 63
    Number of cells = 13750
    Number of points = 15912
    Number of faces shared with processor 55 = 1250
    Number of faces shared with processor 59 = 275
    Number of faces shared with processor 62 = 550
    Number of faces shared with processor 71 = 1250
    Number of processor patches = 4
    Number of processor faces = 3325
    Number of boundary faces = 825

Processor 64
    Number of cells = 13750
    Number of points = 15912
    Number of faces shared with processor 56 = 1250
    Number of faces shared with processor 65 = 550
    Number of faces shared with processor 68 = 275
    Number of processor patches = 3
    Number of processor faces = 2075
    Number of boundary faces = 2075

Processor 65
    Number of cells = 13814
    Number of points = 16000
    Number of faces shared with processor 57 = 1273
    Number of faces shared with processor 64 = 550
    Number of faces shared with processor 66 = 558
    Number of faces shared with processor 69 = 275
    Number of processor patches = 4
    Number of processor faces = 2656
    Number of boundary faces = 1540

Processor 66
    Number of cells = 14116
    Number of points = 16325
    Number of faces shared with processor 58 = 1288
    Number of faces shared with processor 65 = 558
    Number of faces shared with processor 67 = 571
    Number of faces shared with processor 70 = 275
    Number of processor patches = 4
    Number of processor faces = 2692
    Number of boundary faces = 1550

Processor 67
    Number of cells = 14431
    Number of points = 16652
    Number of faces shared with processor 59 = 1287
    Number of faces shared with processor 66 = 571
    Number of faces shared with processor 71 = 275
    Number of processor patches = 3
    Number of processor faces = 2133
    Number of boundary faces = 2133

Processor 68
    Number of cells = 13750
    Number of points = 15912
    Number of faces shared with processor 60 = 1250
    Number of faces shared with processor 64 = 275
    Number of faces shared with processor 69 = 550
    Number of processor patches = 3
    Number of processor faces = 2075
    Number of boundary faces = 2075

Processor 69
    Number of cells = 13750
    Number of points = 15912
    Number of faces shared with processor 61 = 1250
    Number of faces shared with processor 65 = 275
    Number of faces shared with processor 68 = 550
    Number of faces shared with processor 70 = 550
    Number of processor patches = 4
    Number of processor faces = 2625
    Number of boundary faces = 1525

Processor 70
    Number of cells = 13750
    Number of points = 15912
    Number of faces shared with processor 62 = 1250
    Number of faces shared with processor 66 = 275
    Number of faces shared with processor 69 = 550
    Number of faces shared with processor 71 = 550
    Number of processor patches = 4
    Number of processor faces = 2625
    Number of boundary faces = 1525

Processor 71
    Number of cells = 13750
    Number of points = 15912
    Number of faces shared with processor 63 = 1250
    Number of faces shared with processor 67 = 275
    Number of faces shared with processor 70 = 550
    Number of processor patches = 3
    Number of processor faces = 2075
    Number of boundary faces = 2075

Number of processor faces = 121060
Max number of cells = 14431 (3.9032% above average 13888.9)
Max number of processor patches = 7 (51.8072% above average 4.61111)
Max number of faces between processors = 3979 (18.3248% above average 3362.78)

Time = 0

Processor 0: field transfer
--> FOAM Warning : 
    From void* Foam::dlLibraryTable::openLibrary(const Foam::fileName&, bool)
    in file db/dynamicLibrary/dlLibraryTable/dlLibraryTable.C at line 188
    Could not load "libpetscFoam.so"
libpetscFoam.so: cannot open shared object file: No such file or directory
Processor 1: field transfer
--> FOAM Warning : 
    From void* Foam::dlLibraryTable::openLibrary(const Foam::fileName&, bool)
    in file db/dynamicLibrary/dlLibraryTable/dlLibraryTable.C at line 188
    Could not load "libpetscFoam.so"
libpetscFoam.so: cannot open shared object file: No such file or directory
Processor 2: field transfer
--> FOAM Warning : 
    From void* Foam::dlLibraryTable::openLibrary(const Foam::fileName&, bool)
    in file db/dynamicLibrary/dlLibraryTable/dlLibraryTable.C at line 188
    Could not load "libpetscFoam.so"
libpetscFoam.so: cannot open shared object file: No such file or directory
Processor 3: field transfer
--> FOAM Warning : 
    From void* Foam::dlLibraryTable::openLibrary(const Foam::fileName&, bool)
    in file db/dynamicLibrary/dlLibraryTable/dlLibraryTable.C at line 188
    Could not load "libpetscFoam.so"
libpetscFoam.so: cannot open shared object file: No such file or directory
Processor 4: field transfer
--> FOAM Warning : 
    From void* Foam::dlLibraryTable::openLibrary(const Foam::fileName&, bool)
    in file db/dynamicLibrary/dlLibraryTable/dlLibraryTable.C at line 188
    Could not load "libpetscFoam.so"
libpetscFoam.so: cannot open shared object file: No such file or directory
Processor 5: field transfer
--> FOAM Warning : 
    From void* Foam::dlLibraryTable::openLibrary(const Foam::fileName&, bool)
    in file db/dynamicLibrary/dlLibraryTable/dlLibraryTable.C at line 188
    Could not load "libpetscFoam.so"
libpetscFoam.so: cannot open shared object file: No such file or directory
Processor 6: field transfer
--> FOAM Warning : 
    From void* Foam::dlLibraryTable::openLibrary(const Foam::fileName&, bool)
    in file db/dynamicLibrary/dlLibraryTable/dlLibraryTable.C at line 188
    Could not load "libpetscFoam.so"
libpetscFoam.so: cannot open shared object file: No such file or directory
Processor 7: field transfer
--> FOAM Warning : 
    From void* Foam::dlLibraryTable::openLibrary(const Foam::fileName&, bool)
    in file db/dynamicLibrary/dlLibraryTable/dlLibraryTable.C at line 188
    Could not load "libpetscFoam.so"
libpetscFoam.so: cannot open shared object file: No such file or directory
Processor 8: field transfer
--> FOAM Warning : 
    From void* Foam::dlLibraryTable::openLibrary(const Foam::fileName&, bool)
    in file db/dynamicLibrary/dlLibraryTable/dlLibraryTable.C at line 188
    Could not load "libpetscFoam.so"
libpetscFoam.so: cannot open shared object file: No such file or directory
Processor 9: field transfer
--> FOAM Warning : 
    From void* Foam::dlLibraryTable::openLibrary(const Foam::fileName&, bool)
    in file db/dynamicLibrary/dlLibraryTable/dlLibraryTable.C at line 188
    Could not load "libpetscFoam.so"
libpetscFoam.so: cannot open shared object file: No such file or directory
Processor 10: field transfer
--> FOAM Warning : 
    From void* Foam::dlLibraryTable::openLibrary(const Foam::fileName&, bool)
    in file db/dynamicLibrary/dlLibraryTable/dlLibraryTable.C at line 188
    Could not load "libpetscFoam.so"
libpetscFoam.so: cannot open shared object file: No such file or directory
Processor 11: field transfer
--> FOAM Warning : 
    From void* Foam::dlLibraryTable::openLibrary(const Foam::fileName&, bool)
    in file db/dynamicLibrary/dlLibraryTable/dlLibraryTable.C at line 188
    Could not load "libpetscFoam.so"
libpetscFoam.so: cannot open shared object file: No such file or directory
Processor 12: field transfer
--> FOAM Warning : 
    From void* Foam::dlLibraryTable::openLibrary(const Foam::fileName&, bool)
    in file db/dynamicLibrary/dlLibraryTable/dlLibraryTable.C at line 188
    Could not load "libpetscFoam.so"
libpetscFoam.so: cannot open shared object file: No such file or directory
Processor 13: field transfer
--> FOAM Warning : 
    From void* Foam::dlLibraryTable::openLibrary(const Foam::fileName&, bool)
    in file db/dynamicLibrary/dlLibraryTable/dlLibraryTable.C at line 188
    Could not load "libpetscFoam.so"
libpetscFoam.so: cannot open shared object file: No such file or directory
Processor 14: field transfer
--> FOAM Warning : 
    From void* Foam::dlLibraryTable::openLibrary(const Foam::fileName&, bool)
    in file db/dynamicLibrary/dlLibraryTable/dlLibraryTable.C at line 188
    Could not load "libpetscFoam.so"
libpetscFoam.so: cannot open shared object file: No such file or directory
Processor 15: field transfer
--> FOAM Warning : 
    From void* Foam::dlLibraryTable::openLibrary(const Foam::fileName&, bool)
    in file db/dynamicLibrary/dlLibraryTable/dlLibraryTable.C at line 188
    Could not load "libpetscFoam.so"
libpetscFoam.so: cannot open shared object file: No such file or directory
Processor 16: field transfer
--> FOAM Warning : 
    From void* Foam::dlLibraryTable::openLibrary(const Foam::fileName&, bool)
    in file db/dynamicLibrary/dlLibraryTable/dlLibraryTable.C at line 188
    Could not load "libpetscFoam.so"
libpetscFoam.so: cannot open shared object file: No such file or directory
Processor 17: field transfer
--> FOAM Warning : 
    From void* Foam::dlLibraryTable::openLibrary(const Foam::fileName&, bool)
    in file db/dynamicLibrary/dlLibraryTable/dlLibraryTable.C at line 188
    Could not load "libpetscFoam.so"
libpetscFoam.so: cannot open shared object file: No such file or directory
Processor 18: field transfer
--> FOAM Warning : 
    From void* Foam::dlLibraryTable::openLibrary(const Foam::fileName&, bool)
    in file db/dynamicLibrary/dlLibraryTable/dlLibraryTable.C at line 188
    Could not load "libpetscFoam.so"
libpetscFoam.so: cannot open shared object file: No such file or directory
Processor 19: field transfer
--> FOAM Warning : 
    From void* Foam::dlLibraryTable::openLibrary(const Foam::fileName&, bool)
    in file db/dynamicLibrary/dlLibraryTable/dlLibraryTable.C at line 188
    Could not load "libpetscFoam.so"
libpetscFoam.so: cannot open shared object file: No such file or directory
Processor 20: field transfer
--> FOAM Warning : 
    From void* Foam::dlLibraryTable::openLibrary(const Foam::fileName&, bool)
    in file db/dynamicLibrary/dlLibraryTable/dlLibraryTable.C at line 188
    Could not load "libpetscFoam.so"
libpetscFoam.so: cannot open shared object file: No such file or directory
Processor 21: field transfer
--> FOAM Warning : 
    From void* Foam::dlLibraryTable::openLibrary(const Foam::fileName&, bool)
    in file db/dynamicLibrary/dlLibraryTable/dlLibraryTable.C at line 188
    Could not load "libpetscFoam.so"
libpetscFoam.so: cannot open shared object file: No such file or directory
Processor 22: field transfer
--> FOAM Warning : 
    From void* Foam::dlLibraryTable::openLibrary(const Foam::fileName&, bool)
    in file db/dynamicLibrary/dlLibraryTable/dlLibraryTable.C at line 188
    Could not load "libpetscFoam.so"
libpetscFoam.so: cannot open shared object file: No such file or directory
Processor 23: field transfer
--> FOAM Warning : 
    From void* Foam::dlLibraryTable::openLibrary(const Foam::fileName&, bool)
    in file db/dynamicLibrary/dlLibraryTable/dlLibraryTable.C at line 188
    Could not load "libpetscFoam.so"
libpetscFoam.so: cannot open shared object file: No such file or directory
Processor 24: field transfer
--> FOAM Warning : 
    From void* Foam::dlLibraryTable::openLibrary(const Foam::fileName&, bool)
    in file db/dynamicLibrary/dlLibraryTable/dlLibraryTable.C at line 188
    Could not load "libpetscFoam.so"
libpetscFoam.so: cannot open shared object file: No such file or directory
Processor 25: field transfer
--> FOAM Warning : 
    From void* Foam::dlLibraryTable::openLibrary(const Foam::fileName&, bool)
    in file db/dynamicLibrary/dlLibraryTable/dlLibraryTable.C at line 188
    Could not load "libpetscFoam.so"
libpetscFoam.so: cannot open shared object file: No such file or directory
Processor 26: field transfer
--> FOAM Warning : 
    From void* Foam::dlLibraryTable::openLibrary(const Foam::fileName&, bool)
    in file db/dynamicLibrary/dlLibraryTable/dlLibraryTable.C at line 188
    Could not load "libpetscFoam.so"
libpetscFoam.so: cannot open shared object file: No such file or directory
Processor 27: field transfer
--> FOAM Warning : 
    From void* Foam::dlLibraryTable::openLibrary(const Foam::fileName&, bool)
    in file db/dynamicLibrary/dlLibraryTable/dlLibraryTable.C at line 188
    Could not load "libpetscFoam.so"
libpetscFoam.so: cannot open shared object file: No such file or directory
Processor 28: field transfer
--> FOAM Warning : 
    From void* Foam::dlLibraryTable::openLibrary(const Foam::fileName&, bool)
    in file db/dynamicLibrary/dlLibraryTable/dlLibraryTable.C at line 188
    Could not load "libpetscFoam.so"
libpetscFoam.so: cannot open shared object file: No such file or directory
Processor 29: field transfer
--> FOAM Warning : 
    From void* Foam::dlLibraryTable::openLibrary(const Foam::fileName&, bool)
    in file db/dynamicLibrary/dlLibraryTable/dlLibraryTable.C at line 188
    Could not load "libpetscFoam.so"
libpetscFoam.so: cannot open shared object file: No such file or directory
Processor 30: field transfer
--> FOAM Warning : 
    From void* Foam::dlLibraryTable::openLibrary(const Foam::fileName&, bool)
    in file db/dynamicLibrary/dlLibraryTable/dlLibraryTable.C at line 188
    Could not load "libpetscFoam.so"
libpetscFoam.so: cannot open shared object file: No such file or directory
Processor 31: field transfer
--> FOAM Warning : 
    From void* Foam::dlLibraryTable::openLibrary(const Foam::fileName&, bool)
    in file db/dynamicLibrary/dlLibraryTable/dlLibraryTable.C at line 188
    Could not load "libpetscFoam.so"
libpetscFoam.so: cannot open shared object file: No such file or directory
Processor 32: field transfer
--> FOAM Warning : 
    From void* Foam::dlLibraryTable::openLibrary(const Foam::fileName&, bool)
    in file db/dynamicLibrary/dlLibraryTable/dlLibraryTable.C at line 188
    Could not load "libpetscFoam.so"
libpetscFoam.so: cannot open shared object file: No such file or directory
Processor 33: field transfer
--> FOAM Warning : 
    From void* Foam::dlLibraryTable::openLibrary(const Foam::fileName&, bool)
    in file db/dynamicLibrary/dlLibraryTable/dlLibraryTable.C at line 188
    Could not load "libpetscFoam.so"
libpetscFoam.so: cannot open shared object file: No such file or directory
Processor 34: field transfer
--> FOAM Warning : 
    From void* Foam::dlLibraryTable::openLibrary(const Foam::fileName&, bool)
    in file db/dynamicLibrary/dlLibraryTable/dlLibraryTable.C at line 188
    Could not load "libpetscFoam.so"
libpetscFoam.so: cannot open shared object file: No such file or directory
Processor 35: field transfer
--> FOAM Warning : 
    From void* Foam::dlLibraryTable::openLibrary(const Foam::fileName&, bool)
    in file db/dynamicLibrary/dlLibraryTable/dlLibraryTable.C at line 188
    Could not load "libpetscFoam.so"
libpetscFoam.so: cannot open shared object file: No such file or directory
Processor 36: field transfer
--> FOAM Warning : 
    From void* Foam::dlLibraryTable::openLibrary(const Foam::fileName&, bool)
    in file db/dynamicLibrary/dlLibraryTable/dlLibraryTable.C at line 188
    Could not load "libpetscFoam.so"
libpetscFoam.so: cannot open shared object file: No such file or directory
Processor 37: field transfer
--> FOAM Warning : 
    From void* Foam::dlLibraryTable::openLibrary(const Foam::fileName&, bool)
    in file db/dynamicLibrary/dlLibraryTable/dlLibraryTable.C at line 188
    Could not load "libpetscFoam.so"
libpetscFoam.so: cannot open shared object file: No such file or directory
Processor 38: field transfer
--> FOAM Warning : 
    From void* Foam::dlLibraryTable::openLibrary(const Foam::fileName&, bool)
    in file db/dynamicLibrary/dlLibraryTable/dlLibraryTable.C at line 188
    Could not load "libpetscFoam.so"
libpetscFoam.so: cannot open shared object file: No such file or directory
Processor 39: field transfer
--> FOAM Warning : 
    From void* Foam::dlLibraryTable::openLibrary(const Foam::fileName&, bool)
    in file db/dynamicLibrary/dlLibraryTable/dlLibraryTable.C at line 188
    Could not load "libpetscFoam.so"
libpetscFoam.so: cannot open shared object file: No such file or directory
Processor 40: field transfer
--> FOAM Warning : 
    From void* Foam::dlLibraryTable::openLibrary(const Foam::fileName&, bool)
    in file db/dynamicLibrary/dlLibraryTable/dlLibraryTable.C at line 188
    Could not load "libpetscFoam.so"
libpetscFoam.so: cannot open shared object file: No such file or directory
Processor 41: field transfer
--> FOAM Warning : 
    From void* Foam::dlLibraryTable::openLibrary(const Foam::fileName&, bool)
    in file db/dynamicLibrary/dlLibraryTable/dlLibraryTable.C at line 188
    Could not load "libpetscFoam.so"
libpetscFoam.so: cannot open shared object file: No such file or directory
Processor 42: field transfer
--> FOAM Warning : 
    From void* Foam::dlLibraryTable::openLibrary(const Foam::fileName&, bool)
    in file db/dynamicLibrary/dlLibraryTable/dlLibraryTable.C at line 188
    Could not load "libpetscFoam.so"
libpetscFoam.so: cannot open shared object file: No such file or directory
Processor 43: field transfer
--> FOAM Warning : 
    From void* Foam::dlLibraryTable::openLibrary(const Foam::fileName&, bool)
    in file db/dynamicLibrary/dlLibraryTable/dlLibraryTable.C at line 188
    Could not load "libpetscFoam.so"
libpetscFoam.so: cannot open shared object file: No such file or directory
Processor 44: field transfer
--> FOAM Warning : 
    From void* Foam::dlLibraryTable::openLibrary(const Foam::fileName&, bool)
    in file db/dynamicLibrary/dlLibraryTable/dlLibraryTable.C at line 188
    Could not load "libpetscFoam.so"
libpetscFoam.so: cannot open shared object file: No such file or directory
Processor 45: field transfer
--> FOAM Warning : 
    From void* Foam::dlLibraryTable::openLibrary(const Foam::fileName&, bool)
    in file db/dynamicLibrary/dlLibraryTable/dlLibraryTable.C at line 188
    Could not load "libpetscFoam.so"
libpetscFoam.so: cannot open shared object file: No such file or directory
Processor 46: field transfer
--> FOAM Warning : 
    From void* Foam::dlLibraryTable::openLibrary(const Foam::fileName&, bool)
    in file db/dynamicLibrary/dlLibraryTable/dlLibraryTable.C at line 188
    Could not load "libpetscFoam.so"
libpetscFoam.so: cannot open shared object file: No such file or directory
Processor 47: field transfer
--> FOAM Warning : 
    From void* Foam::dlLibraryTable::openLibrary(const Foam::fileName&, bool)
    in file db/dynamicLibrary/dlLibraryTable/dlLibraryTable.C at line 188
    Could not load "libpetscFoam.so"
libpetscFoam.so: cannot open shared object file: No such file or directory
Processor 48: field transfer
--> FOAM Warning : 
    From void* Foam::dlLibraryTable::openLibrary(const Foam::fileName&, bool)
    in file db/dynamicLibrary/dlLibraryTable/dlLibraryTable.C at line 188
    Could not load "libpetscFoam.so"
libpetscFoam.so: cannot open shared object file: No such file or directory
Processor 49: field transfer
--> FOAM Warning : 
    From void* Foam::dlLibraryTable::openLibrary(const Foam::fileName&, bool)
    in file db/dynamicLibrary/dlLibraryTable/dlLibraryTable.C at line 188
    Could not load "libpetscFoam.so"
libpetscFoam.so: cannot open shared object file: No such file or directory
Processor 50: field transfer
--> FOAM Warning : 
    From void* Foam::dlLibraryTable::openLibrary(const Foam::fileName&, bool)
    in file db/dynamicLibrary/dlLibraryTable/dlLibraryTable.C at line 188
    Could not load "libpetscFoam.so"
libpetscFoam.so: cannot open shared object file: No such file or directory
Processor 51: field transfer
--> FOAM Warning : 
    From void* Foam::dlLibraryTable::openLibrary(const Foam::fileName&, bool)
    in file db/dynamicLibrary/dlLibraryTable/dlLibraryTable.C at line 188
    Could not load "libpetscFoam.so"
libpetscFoam.so: cannot open shared object file: No such file or directory
Processor 52: field transfer
--> FOAM Warning : 
    From void* Foam::dlLibraryTable::openLibrary(const Foam::fileName&, bool)
    in file db/dynamicLibrary/dlLibraryTable/dlLibraryTable.C at line 188
    Could not load "libpetscFoam.so"
libpetscFoam.so: cannot open shared object file: No such file or directory
Processor 53: field transfer
--> FOAM Warning : 
    From void* Foam::dlLibraryTable::openLibrary(const Foam::fileName&, bool)
    in file db/dynamicLibrary/dlLibraryTable/dlLibraryTable.C at line 188
    Could not load "libpetscFoam.so"
libpetscFoam.so: cannot open shared object file: No such file or directory
Processor 54: field transfer
--> FOAM Warning : 
    From void* Foam::dlLibraryTable::openLibrary(const Foam::fileName&, bool)
    in file db/dynamicLibrary/dlLibraryTable/dlLibraryTable.C at line 188
    Could not load "libpetscFoam.so"
libpetscFoam.so: cannot open shared object file: No such file or directory
Processor 55: field transfer
--> FOAM Warning : 
    From void* Foam::dlLibraryTable::openLibrary(const Foam::fileName&, bool)
    in file db/dynamicLibrary/dlLibraryTable/dlLibraryTable.C at line 188
    Could not load "libpetscFoam.so"
libpetscFoam.so: cannot open shared object file: No such file or directory
Processor 56: field transfer
--> FOAM Warning : 
    From void* Foam::dlLibraryTable::openLibrary(const Foam::fileName&, bool)
    in file db/dynamicLibrary/dlLibraryTable/dlLibraryTable.C at line 188
    Could not load "libpetscFoam.so"
libpetscFoam.so: cannot open shared object file: No such file or directory
Processor 57: field transfer
--> FOAM Warning : 
    From void* Foam::dlLibraryTable::openLibrary(const Foam::fileName&, bool)
    in file db/dynamicLibrary/dlLibraryTable/dlLibraryTable.C at line 188
    Could not load "libpetscFoam.so"
libpetscFoam.so: cannot open shared object file: No such file or directory
Processor 58: field transfer
--> FOAM Warning : 
    From void* Foam::dlLibraryTable::openLibrary(const Foam::fileName&, bool)
    in file db/dynamicLibrary/dlLibraryTable/dlLibraryTable.C at line 188
    Could not load "libpetscFoam.so"
libpetscFoam.so: cannot open shared object file: No such file or directory
Processor 59: field transfer
--> FOAM Warning : 
    From void* Foam::dlLibraryTable::openLibrary(const Foam::fileName&, bool)
    in file db/dynamicLibrary/dlLibraryTable/dlLibraryTable.C at line 188
    Could not load "libpetscFoam.so"
libpetscFoam.so: cannot open shared object file: No such file or directory
Processor 60: field transfer
--> FOAM Warning : 
    From void* Foam::dlLibraryTable::openLibrary(const Foam::fileName&, bool)
    in file db/dynamicLibrary/dlLibraryTable/dlLibraryTable.C at line 188
    Could not load "libpetscFoam.so"
libpetscFoam.so: cannot open shared object file: No such file or directory
Processor 61: field transfer
--> FOAM Warning : 
    From void* Foam::dlLibraryTable::openLibrary(const Foam::fileName&, bool)
    in file db/dynamicLibrary/dlLibraryTable/dlLibraryTable.C at line 188
    Could not load "libpetscFoam.so"
libpetscFoam.so: cannot open shared object file: No such file or directory
Processor 62: field transfer
--> FOAM Warning : 
    From void* Foam::dlLibraryTable::openLibrary(const Foam::fileName&, bool)
    in file db/dynamicLibrary/dlLibraryTable/dlLibraryTable.C at line 188
    Could not load "libpetscFoam.so"
libpetscFoam.so: cannot open shared object file: No such file or directory
Processor 63: field transfer
--> FOAM Warning : 
    From void* Foam::dlLibraryTable::openLibrary(const Foam::fileName&, bool)
    in file db/dynamicLibrary/dlLibraryTable/dlLibraryTable.C at line 188
    Could not load "libpetscFoam.so"
libpetscFoam.so: cannot open shared object file: No such file or directory
Processor 64: field transfer
--> FOAM Warning : 
    From void* Foam::dlLibraryTable::openLibrary(const Foam::fileName&, bool)
    in file db/dynamicLibrary/dlLibraryTable/dlLibraryTable.C at line 188
    Could not load "libpetscFoam.so"
libpetscFoam.so: cannot open shared object file: No such file or directory
Processor 65: field transfer
--> FOAM Warning : 
    From void* Foam::dlLibraryTable::openLibrary(const Foam::fileName&, bool)
    in file db/dynamicLibrary/dlLibraryTable/dlLibraryTable.C at line 188
    Could not load "libpetscFoam.so"
libpetscFoam.so: cannot open shared object file: No such file or directory
Processor 66: field transfer
--> FOAM Warning : 
    From void* Foam::dlLibraryTable::openLibrary(const Foam::fileName&, bool)
    in file db/dynamicLibrary/dlLibraryTable/dlLibraryTable.C at line 188
    Could not load "libpetscFoam.so"
libpetscFoam.so: cannot open shared object file: No such file or directory
Processor 67: field transfer
--> FOAM Warning : 
    From void* Foam::dlLibraryTable::openLibrary(const Foam::fileName&, bool)
    in file db/dynamicLibrary/dlLibraryTable/dlLibraryTable.C at line 188
    Could not load "libpetscFoam.so"
libpetscFoam.so: cannot open shared object file: No such file or directory
Processor 68: field transfer
--> FOAM Warning : 
    From void* Foam::dlLibraryTable::openLibrary(const Foam::fileName&, bool)
    in file db/dynamicLibrary/dlLibraryTable/dlLibraryTable.C at line 188
    Could not load "libpetscFoam.so"
libpetscFoam.so: cannot open shared object file: No such file or directory
Processor 69: field transfer
--> FOAM Warning : 
    From void* Foam::dlLibraryTable::openLibrary(const Foam::fileName&, bool)
    in file db/dynamicLibrary/dlLibraryTable/dlLibraryTable.C at line 188
    Could not load "libpetscFoam.so"
libpetscFoam.so: cannot open shared object file: No such file or directory
Processor 70: field transfer
--> FOAM Warning : 
    From void* Foam::dlLibraryTable::openLibrary(const Foam::fileName&, bool)
    in file db/dynamicLibrary/dlLibraryTable/dlLibraryTable.C at line 188
    Could not load "libpetscFoam.so"
libpetscFoam.so: cannot open shared object file: No such file or directory
Processor 71: field transfer
--> FOAM Warning : 
    From void* Foam::dlLibraryTable::openLibrary(const Foam::fileName&, bool)
    in file db/dynamicLibrary/dlLibraryTable/dlLibraryTable.C at line 188
    Could not load "libpetscFoam.so"
libpetscFoam.so: cannot open shared object file: No such file or directory

End

