/*---------------------------------------------------------------------------*\
| =========                 |                                                 |
| \\      /  F ield         | OpenFOAM: The Open Source CFD Toolbox           |
|  \\    /   O peration     | Version:  2306                                  |
|   \\  /    A nd           | Website:  www.openfoam.com                      |
|    \\/     M anipulation  |                                                 |
\*---------------------------------------------------------------------------*/
Build  : a6e826bd55-20230630 OPENFOAM=2306 version=v2306
Arch   : "LSB;label=32;scalar=64"
Exec   : icoFoam -parallel -case /tmp/lidDrivenCavity/workspace/6f33a7232a33046122643f4a46d8fae7/case
Date   : Dec 16 2023
Time   : 14:13:27
Host   : nla-gpu2.ianm.kit.edu
PID    : 177031
I/O    : uncollated
Case   : /tmp/lidDrivenCavity/workspace/6f33a7232a33046122643f4a46d8fae7/case
nProcs : 8
Hosts  :
(
    (nla-gpu2.ianm.kit.edu 8)
)
Pstream initialized with:
    floatTransfer      : false
    nProcsSimpleSum    : 0
    nonBlockingExchange: 0 (tuning: 0)
    exchange algorithm : -1
    commsType          : nonBlocking
    polling iterations : 0
trapFpe: Floating point exception trapping enabled (FOAM_SIGFPE).
fileModificationChecking : Monitoring run-time modified files using timeStampMaster (fileModificationSkew 5, maxFileModificationPolls 20)
allowSystemOperations : Allowing user-supplied system call operations

// * * * * * * * * * * * * * * * * * * * * * * * * * * * * * * * * * * * * * //
Create time

--> FOAM Warning : 
    From void* Foam::dlLibraryTable::openLibrary(const Foam::fileName&, bool)
    in file db/dynamicLibrary/dlLibraryTable/dlLibraryTable.C at line 188
    Could not load "libpetscFoam.so"
libpetscFoam.so: cannot open shared object file: No such file or directory
Create mesh for time = 0


PISO: Operating solver in PISO mode

Reading transportProperties

Reading field p

Reading field U

Reading/calculating face flux field phi


Starting time loop

Time = 0.000166

Courant Number mean: 8.14055e-18 max: 3.11001e-14
[INFO] MatrixAssemblyU: 346.477 [ms]
DILUPBiCGStab:  Solving for Ux, Initial residual = 1, Final residual = 0.0159896, No Iterations 5
DILUPBiCGStab:  Solving for Uy:  solution singularity
DILUPBiCGStab:  Solving for Uz:  solution singularity
[INFO] MomentumPredictor: 1581.6 [ms]
[INFO] MatrixAssemblyPI: 352.595 [ms]
[INFO] AdjustPhi: 19.349 [ms]
[INFO] ConstrainPressure: 0.013 [ms]
[INFO] MatrixAssemblyPII: 98.633 [ms]
[OGL LOG][lduLduBase.H:119] Initialising OGL
	OGL commit:  1421b02+
	Branch: feat/on_device_permute 
	Build type: Release
	Ginkgo version: 1.7.0 ( develop)
	Ginkgo commit: sparse-communicator
	MPI is GPU aware: 1
	Forces host buffer based communication: 0
	CPU ranks per GPU: 1
	Matrix format: Coo
	End OGL_INFO
[OGL LOG][Proc: 0]: global_index_init: 7.648 [ms]
[OGL LOG][Proc: 0]p_local_cols: call_init: 0.061 [ms]
[OGL LOG][Proc: 0]p_local_rows: call_init: 0.013 [ms]
[OGL LOG][Proc: 0]p_local_ldu_map: call_init: 0.14 [ms]
[OGL LOG][Proc: 0]p_local_coeffs: call_init: 0.446 [ms]
[OGL LOG][Proc: 0]p_non_local_cols: call_init: 0.005 [ms]
[OGL LOG][Proc: 0]p_non_local_rows: call_init: 0.002 [ms]
[OGL LOG][Proc: 0]p_non_local_ldu_map: call_init: 0.002 [ms]
[OGL LOG][Proc: 0]p_non_local_coeffs: call_init: 0.002 [ms]
[OGL LOG][Proc: 0]p: init_local_sparsity_pattern: 919.227 [ms]
[OGL LOG][Proc: 0]p: init_non_local_sparsity_pattern: 2.544 [ms]
[OGL LOG][Proc: 0]p: update_local_matrix_data: 94.846 [ms]
[OGL LOG][Proc: 0]p: update_non_local_matrix_data: 0.237 [ms]
[OGL LOG][Proc: 0]device_partition: call_init: 0.153 [ms]
[OGL LOG][Proc: 0]p_matrix: call_init: 144.609 [ms]
[OGL LOG][Proc: 0]p_rhs: call_init: 13.181 [ms]
[OGL LOG][Proc: 0]p_solution: call_init: 1.909 [ms]
[OGL LOG][Preconditioner.H:121] Generate preconditioner BJ MaxBlockSize 1
[OGL LOG][Proc: 0]p: init_precond: 3.891 [ms]
[OGL LOG][StoppingCriterion.H:237] Creating stopping criterion with minIter 0 frequency 1
[OGL LOG][Proc: 0]p: generate_solver: 0.014 [ms]
[OGL LOG][Proc: 0]p: solve: 6575.32 [ms]
[OGL LOG][Proc: 0]p: copy_x_back: 10.012 [ms]
[OGL LOG][lduLduBase.H:330] 
Statistics:
	Time per iteration: 2719 [mu s]
	Time per residual norm calculation: 1075.000000 [mu s]
	Time per iteration and DOF: 0.100704 [ns]
	Retrieve results bandwidth 2.696000 [GByte/s]
[OGL LOG][Proc: 0]p: solve_multi_gpu: 6756.07 [ms]
BJhipGKOCG:  Solving for p, Initial residual = 1, Final residual = 9.94605e-05, No Iterations 2418
[INFO] SolveP: 8020.25 [ms]
time step continuity errors : sum local = 4.02567e-09, global = 1.95224e-21, cumulative = 1.95224e-21
[INFO] ContinuityError: 57.205 [ms]
[INFO] CorrectBoundary: 2.258 [ms]
[INFO] PISOStep: 8666.83 [ms]
[INFO] MatrixAssemblyPI: 343.991 [ms]
[INFO] AdjustPhi: 19.062 [ms]
[INFO] ConstrainPressure: 0.004 [ms]
[INFO] MatrixAssemblyPII: 98.471 [ms]
[OGL LOG][Proc: 0]: global_index_init: 0.426 [ms]
[OGL LOG][Proc: 0]p_local_coeffs: call_update: 0.004 [ms]
[OGL LOG][Proc: 0]p_non_local_coeffs: call_update: 0 [ms]
[OGL LOG][Proc: 0]p: update_local_matrix_data: 66.973 [ms]
[OGL LOG][Proc: 0]p: update_non_local_matrix_data: 0.245 [ms]
[OGL LOG][Proc: 0]p_matrix: call_update: 2.319 [ms]
[OGL LOG][Proc: 0]p_rhs: call_update: 2.488 [ms]
[OGL LOG][Preconditioner.H:121] Generate preconditioner BJ MaxBlockSize 1
[OGL LOG][Proc: 0]p: init_precond: 1.112 [ms]
[OGL LOG][StoppingCriterion.H:237] Creating stopping criterion with minIter 1450 frequency 21
[OGL LOG][Proc: 0]p: generate_solver: 0.002 [ms]
[OGL LOG][Proc: 0]p: solve: 4404.26 [ms]
[OGL LOG][Proc: 0]p: copy_x_back: 11.397 [ms]
[OGL LOG][lduLduBase.H:330] 
Statistics:
	Time per iteration: 1822 [mu s]
	Time per residual norm calculation: 318.000000 [mu s]
	Time per iteration and DOF: 0.067481 [ns]
	Retrieve results bandwidth 2.369000 [GByte/s]
[OGL LOG][Proc: 0]p: solve_multi_gpu: 4425.94 [ms]
BJhipGKOCG:  Solving for p, Initial residual = 0.809676, Final residual = 7.93087e-05, No Iterations 2416
[INFO] SolveP: 4511.39 [ms]
time step continuity errors : sum local = 3.91712e-09, global = 5.47604e-22, cumulative = 2.49984e-21
[INFO] ContinuityError: 53.457 [ms]
[INFO] CorrectBoundary: 1.878 [ms]
[INFO] PISOStep: 5146.94 [ms]
[INFO] TimeStep: 15791.8 [ms]
ExecutionTime = 20.23 s  ClockTime = 17 s

Time = 0.000332

Courant Number mean: 0.0128497 max: 0.426563
[INFO] MatrixAssemblyU: 264.765 [ms]
DILUPBiCGStab:  Solving for Ux, Initial residual = 0.116942, Final residual = 0.00923007, No Iterations 5
DILUPBiCGStab:  Solving for Uy, Initial residual = 0.459876, Final residual = 0.0300232, No Iterations 5
DILUPBiCGStab:  Solving for Uz, Initial residual = 0.995327, Final residual = 0.0718278, No Iterations 5
[INFO] MomentumPredictor: 2976.13 [ms]
[INFO] MatrixAssemblyPI: 344.777 [ms]
[INFO] AdjustPhi: 25.136 [ms]
[INFO] ConstrainPressure: 0.004 [ms]
[INFO] MatrixAssemblyPII: 98.904 [ms]
[OGL LOG][Proc: 0]: global_index_init: 0.145 [ms]
[OGL LOG][Proc: 0]p_local_coeffs: call_update: 0 [ms]
[OGL LOG][Proc: 0]p_non_local_coeffs: call_update: 0 [ms]
[OGL LOG][Proc: 0]p: update_local_matrix_data: 54.715 [ms]
[OGL LOG][Proc: 0]p: update_non_local_matrix_data: 0.24 [ms]
[OGL LOG][Proc: 0]p_matrix: call_update: 2.347 [ms]
[OGL LOG][Proc: 0]p_rhs: call_update: 3.108 [ms]
[OGL LOG][Preconditioner.H:121] Generate preconditioner BJ MaxBlockSize 1
[OGL LOG][Proc: 0]p: init_precond: 1.106 [ms]
[OGL LOG][StoppingCriterion.H:237] Creating stopping criterion with minIter 1449 frequency 13
[OGL LOG][Proc: 0]p: generate_solver: 0.002 [ms]
[OGL LOG][Proc: 0]p: solve: 4401.66 [ms]
[OGL LOG][Proc: 0]p: copy_x_back: 9.487 [ms]
[OGL LOG][lduLduBase.H:330] 
Statistics:
	Time per iteration: 1849 [mu s]
	Time per residual norm calculation: 329.000000 [mu s]
	Time per iteration and DOF: 0.068481 [ns]
	Retrieve results bandwidth 2.845000 [GByte/s]
[OGL LOG][Proc: 0]p: solve_multi_gpu: 4426.18 [ms]
BJhipGKOCG:  Solving for p, Initial residual = 0.878214, Final residual = 8.13789e-05, No Iterations 2380
[INFO] SolveP: 4492.91 [ms]
time step continuity errors : sum local = 7.73126e-09, global = 1.12503e-21, cumulative = 3.62487e-21
[INFO] ContinuityError: 50.54 [ms]
[INFO] CorrectBoundary: 2.708 [ms]
[INFO] PISOStep: 5129.32 [ms]
[INFO] MatrixAssemblyPI: 339.846 [ms]
[INFO] AdjustPhi: 22.162 [ms]
[INFO] ConstrainPressure: 0.005 [ms]
[INFO] MatrixAssemblyPII: 97.989 [ms]
[OGL LOG][Proc: 0]: global_index_init: 0.189 [ms]
[OGL LOG][Proc: 0]p_local_coeffs: call_update: 0 [ms]
[OGL LOG][Proc: 0]p_non_local_coeffs: call_update: 0 [ms]
[OGL LOG][Proc: 0]p: update_local_matrix_data: 62.525 [ms]
[OGL LOG][Proc: 0]p: update_non_local_matrix_data: 0.235 [ms]
[OGL LOG][Proc: 0]p_matrix: call_update: 2.055 [ms]
[OGL LOG][Proc: 0]p_rhs: call_update: 2.723 [ms]
[OGL LOG][Preconditioner.H:121] Generate preconditioner BJ MaxBlockSize 1
[OGL LOG][Proc: 0]p: init_precond: 1.114 [ms]
[OGL LOG][StoppingCriterion.H:237] Creating stopping criterion with minIter 1428 frequency 13
[OGL LOG][Proc: 0]p: generate_solver: 0.002 [ms]
[OGL LOG][Proc: 0]p: solve: 4335.8 [ms]
[OGL LOG][Proc: 0]p: copy_x_back: 9.51 [ms]
[OGL LOG][lduLduBase.H:330] 
Statistics:
	Time per iteration: 1821 [mu s]
	Time per residual norm calculation: 343.000000 [mu s]
	Time per iteration and DOF: 0.067444 [ns]
	Retrieve results bandwidth 2.839000 [GByte/s]
[OGL LOG][Proc: 0]p: solve_multi_gpu: 4364.41 [ms]
BJhipGKOCG:  Solving for p, Initial residual = 0.826382, Final residual = 7.5077e-05, No Iterations 2380
[INFO] SolveP: 4437.88 [ms]
time step continuity errors : sum local = 7.26429e-09, global = -4.73683e-23, cumulative = 3.5775e-21
[INFO] ContinuityError: 51.06 [ms]
[INFO] CorrectBoundary: 0.901 [ms]
[INFO] PISOStep: 5071.05 [ms]
[INFO] TimeStep: 13488.2 [ms]
ExecutionTime = 36.68 s  ClockTime = 31 s

Time = 0.000498

Courant Number mean: 0.0198262 max: 0.491804
[INFO] MatrixAssemblyU: 263.353 [ms]
DILUPBiCGStab:  Solving for Ux, Initial residual = 0.0544577, Final residual = 0.00348866, No Iterations 5
DILUPBiCGStab:  Solving for Uy, Initial residual = 0.226377, Final residual = 0.0156761, No Iterations 5
DILUPBiCGStab:  Solving for Uz, Initial residual = 0.854743, Final residual = 0.0552295, No Iterations 5
[INFO] MomentumPredictor: 2982.84 [ms]
[INFO] MatrixAssemblyPI: 346.303 [ms]
[INFO] AdjustPhi: 18.431 [ms]
[INFO] ConstrainPressure: 0.005 [ms]
[INFO] MatrixAssemblyPII: 97.852 [ms]
[OGL LOG][Proc: 0]: global_index_init: 0.115 [ms]
[OGL LOG][Proc: 0]p_local_coeffs: call_update: 0 [ms]
[OGL LOG][Proc: 0]p_non_local_coeffs: call_update: 0 [ms]
[OGL LOG][Proc: 0]p: update_local_matrix_data: 55.433 [ms]
[OGL LOG][Proc: 0]p: update_non_local_matrix_data: 0.245 [ms]
[OGL LOG][Proc: 0]p_matrix: call_update: 2.39 [ms]
[OGL LOG][Proc: 0]p_rhs: call_update: 3.064 [ms]
[OGL LOG][Preconditioner.H:121] Generate preconditioner BJ MaxBlockSize 1
[OGL LOG][Proc: 0]p: init_precond: 1.119 [ms]
[OGL LOG][StoppingCriterion.H:237] Creating stopping criterion with minIter 1428 frequency 13
[OGL LOG][Proc: 0]p: generate_solver: 0.003 [ms]
[OGL LOG][Proc: 0]p: solve: 2614.49 [ms]
[OGL LOG][Proc: 0]p: copy_x_back: 9.657 [ms]
[OGL LOG][lduLduBase.H:330] 
Statistics:
	Time per iteration: 1827 [mu s]
	Time per residual norm calculation: 363.000000 [mu s]
	Time per iteration and DOF: 0.067667 [ns]
	Retrieve results bandwidth 2.795000 [GByte/s]
[OGL LOG][Proc: 0]p: solve_multi_gpu: 2639.12 [ms]
BJhipGKOCG:  Solving for p, Initial residual = 0.913751, Final residual = 6.91964e-05, No Iterations 1431
[INFO] SolveP: 2705.24 [ms]
time step continuity errors : sum local = 7.69247e-09, global = -2.56842e-22, cumulative = 3.32066e-21
[INFO] ContinuityError: 50.446 [ms]
[INFO] CorrectBoundary: 0.926 [ms]
[INFO] PISOStep: 3340.22 [ms]
[INFO] MatrixAssemblyPI: 336.752 [ms]
[INFO] AdjustPhi: 20.514 [ms]
[INFO] ConstrainPressure: 0.004 [ms]
[INFO] MatrixAssemblyPII: 98.196 [ms]
[OGL LOG][Proc: 0]: global_index_init: 0.179 [ms]
[OGL LOG][Proc: 0]p_local_coeffs: call_update: 0 [ms]
[OGL LOG][Proc: 0]p_non_local_coeffs: call_update: 0 [ms]
[OGL LOG][Proc: 0]p: update_local_matrix_data: 54.222 [ms]
[OGL LOG][Proc: 0]p: update_non_local_matrix_data: 0.246 [ms]
[OGL LOG][Proc: 0]p_matrix: call_update: 2.29 [ms]
[OGL LOG][Proc: 0]p_rhs: call_update: 2.604 [ms]
[OGL LOG][Preconditioner.H:121] Generate preconditioner BJ MaxBlockSize 1
[OGL LOG][Proc: 0]p: init_precond: 1.128 [ms]
[OGL LOG][StoppingCriterion.H:237] Creating stopping criterion with minIter 858 frequency 10
[OGL LOG][Proc: 0]p: generate_solver: 0.003 [ms]
[OGL LOG][Proc: 0]p: solve: 2189.04 [ms]
[OGL LOG][Proc: 0]p: copy_x_back: 9.489 [ms]
[OGL LOG][lduLduBase.H:330] 
Statistics:
	Time per iteration: 1901 [mu s]
	Time per residual norm calculation: 352.000000 [mu s]
	Time per iteration and DOF: 0.070407 [ns]
	Retrieve results bandwidth 2.845000 [GByte/s]
[OGL LOG][Proc: 0]p: solve_multi_gpu: 2212.39 [ms]
BJhipGKOCG:  Solving for p, Initial residual = 0.882686, Final residual = 8.97555e-05, No Iterations 1151
[INFO] SolveP: 2278.02 [ms]
time step continuity errors : sum local = 9.37786e-09, global = -2.01656e-22, cumulative = 3.119e-21
[INFO] ContinuityError: 49.762 [ms]
[INFO] CorrectBoundary: 3.671 [ms]
[INFO] PISOStep: 2903.24 [ms]
[INFO] TimeStep: 9534.44 [ms]
ExecutionTime = 47.8 s  ClockTime = 40 s

Time = 0.000664

Courant Number mean: 0.0239197 max: 0.47201
[INFO] MatrixAssemblyU: 265.498 [ms]
DILUPBiCGStab:  Solving for Ux, Initial residual = 0.0384976, Final residual = 0.00279687, No Iterations 5
DILUPBiCGStab:  Solving for Uy, Initial residual = 0.174096, Final residual = 0.0125978, No Iterations 5
DILUPBiCGStab:  Solving for Uz, Initial residual = 0.73012, Final residual = 0.0385543, No Iterations 5
[INFO] MomentumPredictor: 2975.83 [ms]
[INFO] MatrixAssemblyPI: 344.395 [ms]
[INFO] AdjustPhi: 20.95 [ms]
[INFO] ConstrainPressure: 0.004 [ms]
[INFO] MatrixAssemblyPII: 99.045 [ms]
[OGL LOG][Proc: 0]: global_index_init: 0.189 [ms]
[OGL LOG][Proc: 0]p_local_coeffs: call_update: 0 [ms]
[OGL LOG][Proc: 0]p_non_local_coeffs: call_update: 0 [ms]
[OGL LOG][Proc: 0]p: update_local_matrix_data: 66.816 [ms]
[OGL LOG][Proc: 0]p: update_non_local_matrix_data: 0.236 [ms]
[OGL LOG][Proc: 0]p_matrix: call_update: 2.3 [ms]
[OGL LOG][Proc: 0]p_rhs: call_update: 3.249 [ms]
[OGL LOG][Preconditioner.H:121] Generate preconditioner BJ MaxBlockSize 1
[OGL LOG][Proc: 0]p: init_precond: 1.118 [ms]
[OGL LOG][StoppingCriterion.H:237] Creating stopping criterion with minIter 690 frequency 9
[OGL LOG][Proc: 0]p: generate_solver: 0.003 [ms]
[OGL LOG][Proc: 0]p: solve: 2157.97 [ms]
[OGL LOG][Proc: 0]p: copy_x_back: 9.705 [ms]
[OGL LOG][lduLduBase.H:330] 
Statistics:
	Time per iteration: 1871 [mu s]
	Time per residual norm calculation: 342.000000 [mu s]
	Time per iteration and DOF: 0.069296 [ns]
	Retrieve results bandwidth 2.782000 [GByte/s]
[OGL LOG][Proc: 0]p: solve_multi_gpu: 2180.26 [ms]
BJhipGKOCG:  Solving for p, Initial residual = 0.890283, Final residual = 9.45889e-05, No Iterations 1153
[INFO] SolveP: 2258.92 [ms]
time step continuity errors : sum local = 1.12895e-08, global = 3.71154e-22, cumulative = 3.49016e-21
[INFO] ContinuityError: 49.485 [ms]
[INFO] CorrectBoundary: 1.126 [ms]
[INFO] PISOStep: 2886.92 [ms]
[INFO] MatrixAssemblyPI: 334.864 [ms]
[INFO] AdjustPhi: 27.623 [ms]
[INFO] ConstrainPressure: 0.004 [ms]
[INFO] MatrixAssemblyPII: 99.474 [ms]
[OGL LOG][Proc: 0]: global_index_init: 0.156 [ms]
[OGL LOG][Proc: 0]p_local_coeffs: call_update: 0 [ms]
[OGL LOG][Proc: 0]p_non_local_coeffs: call_update: 0 [ms]
[OGL LOG][Proc: 0]p: update_local_matrix_data: 54.191 [ms]
[OGL LOG][Proc: 0]p: update_non_local_matrix_data: 0.247 [ms]
[OGL LOG][Proc: 0]p_matrix: call_update: 2.037 [ms]
[OGL LOG][Proc: 0]p_rhs: call_update: 2.954 [ms]
[OGL LOG][Preconditioner.H:121] Generate preconditioner BJ MaxBlockSize 1
[OGL LOG][Proc: 0]p: init_precond: 1.109 [ms]
[OGL LOG][StoppingCriterion.H:237] Creating stopping criterion with minIter 691 frequency 9
[OGL LOG][Proc: 0]p: generate_solver: 0.003 [ms]
[OGL LOG][Proc: 0]p: solve: 2123.58 [ms]
[OGL LOG][Proc: 0]p: copy_x_back: 9.336 [ms]
[OGL LOG][lduLduBase.H:330] 
Statistics:
	Time per iteration: 1856 [mu s]
	Time per residual norm calculation: 318.000000 [mu s]
	Time per iteration and DOF: 0.068741 [ns]
	Retrieve results bandwidth 2.892000 [GByte/s]
[OGL LOG][Proc: 0]p: solve_multi_gpu: 2149.29 [ms]
BJhipGKOCG:  Solving for p, Initial residual = 0.830218, Final residual = 9.46688e-05, No Iterations 1144
[INFO] SolveP: 2216.94 [ms]
time step continuity errors : sum local = 1.0948e-08, global = 9.2314e-22, cumulative = 4.4133e-21
[INFO] ContinuityError: 50.623 [ms]
[INFO] CorrectBoundary: 0.881 [ms]
[INFO] PISOStep: 2846.85 [ms]
[INFO] TimeStep: 9019.75 [ms]
ExecutionTime = 58.24 s  ClockTime = 49 s

Time = 0.00083

Courant Number mean: 0.0274473 max: 0.504971
[INFO] MatrixAssemblyU: 261.535 [ms]
DILUPBiCGStab:  Solving for Ux, Initial residual = 0.0323943, Final residual = 0.00238057, No Iterations 5
DILUPBiCGStab:  Solving for Uy, Initial residual = 0.129656, Final residual = 0.0105551, No Iterations 5
DILUPBiCGStab:  Solving for Uz, Initial residual = 0.676133, Final residual = 0.0332414, No Iterations 5
[INFO] MomentumPredictor: 3005.78 [ms]
[INFO] MatrixAssemblyPI: 345.526 [ms]
[INFO] AdjustPhi: 22.058 [ms]
[INFO] ConstrainPressure: 0.004 [ms]
[INFO] MatrixAssemblyPII: 98.168 [ms]
[OGL LOG][Proc: 0]: global_index_init: 0.213 [ms]
[OGL LOG][Proc: 0]p_local_coeffs: call_update: 0 [ms]
[OGL LOG][Proc: 0]p_non_local_coeffs: call_update: 0 [ms]
[OGL LOG][Proc: 0]p: update_local_matrix_data: 74.136 [ms]
[OGL LOG][Proc: 0]p: update_non_local_matrix_data: 0.263 [ms]
[OGL LOG][Proc: 0]p_matrix: call_update: 2.228 [ms]
[OGL LOG][Proc: 0]p_rhs: call_update: 4.991 [ms]
[OGL LOG][Preconditioner.H:121] Generate preconditioner BJ MaxBlockSize 1
[OGL LOG][Proc: 0]p: init_precond: 1.111 [ms]
[OGL LOG][StoppingCriterion.H:237] Creating stopping criterion with minIter 686 frequency 9
[OGL LOG][Proc: 0]p: generate_solver: 0.003 [ms]
[OGL LOG][Proc: 0]p: solve: 3942.22 [ms]
[OGL LOG][Proc: 0]p: copy_x_back: 9.473 [ms]
[OGL LOG][lduLduBase.H:330] 
Statistics:
	Time per iteration: 1824 [mu s]
	Time per residual norm calculation: 358.000000 [mu s]
	Time per iteration and DOF: 0.067556 [ns]
	Retrieve results bandwidth 2.850000 [GByte/s]
[OGL LOG][Proc: 0]p: solve_multi_gpu: 3963.97 [ms]
BJhipGKOCG:  Solving for p, Initial residual = 0.910502, Final residual = 9.86044e-05, No Iterations 2161
[INFO] SolveP: 4049 [ms]
time step continuity errors : sum local = 1.08759e-08, global = 6.46396e-22, cumulative = 5.05969e-21
[INFO] ContinuityError: 51.298 [ms]
[INFO] CorrectBoundary: 1.466 [ms]
[INFO] PISOStep: 4683.64 [ms]
[INFO] MatrixAssemblyPI: 338.387 [ms]
[INFO] AdjustPhi: 20.596 [ms]
[INFO] ConstrainPressure: 0.004 [ms]
[INFO] MatrixAssemblyPII: 98.937 [ms]
[OGL LOG][Proc: 0]: global_index_init: 0.236 [ms]
[OGL LOG][Proc: 0]p_local_coeffs: call_update: 0 [ms]
[OGL LOG][Proc: 0]p_non_local_coeffs: call_update: 0 [ms]
[OGL LOG][Proc: 0]p: update_local_matrix_data: 55.01 [ms]
[OGL LOG][Proc: 0]p: update_non_local_matrix_data: 0.252 [ms]
[OGL LOG][Proc: 0]p_matrix: call_update: 2.04 [ms]
[OGL LOG][Proc: 0]p_rhs: call_update: 2.932 [ms]
[OGL LOG][Preconditioner.H:121] Generate preconditioner BJ MaxBlockSize 1
[OGL LOG][Proc: 0]p: init_precond: 1.149 [ms]
[OGL LOG][StoppingCriterion.H:237] Creating stopping criterion with minIter 1296 frequency 13
[OGL LOG][Proc: 0]p: generate_solver: 0.003 [ms]
[OGL LOG][Proc: 0]p: solve: 3906.65 [ms]
[OGL LOG][Proc: 0]p: copy_x_back: 9.565 [ms]
[OGL LOG][lduLduBase.H:330] 
Statistics:
	Time per iteration: 1809 [mu s]
	Time per residual norm calculation: 338.000000 [mu s]
	Time per iteration and DOF: 0.067000 [ns]
	Retrieve results bandwidth 2.822000 [GByte/s]
[OGL LOG][Proc: 0]p: solve_multi_gpu: 3936.47 [ms]
BJhipGKOCG:  Solving for p, Initial residual = 0.87272, Final residual = 8.84067e-05, No Iterations 2159
[INFO] SolveP: 4003.28 [ms]
time step continuity errors : sum local = 9.62568e-09, global = 1.38254e-21, cumulative = 6.44224e-21
[INFO] ContinuityError: 49.582 [ms]
[INFO] CorrectBoundary: 1.594 [ms]
[INFO] PISOStep: 4628.78 [ms]
[INFO] TimeStep: 12624.1 [ms]
ExecutionTime = 73.54 s  ClockTime = 62 s

Time = 0.000996

Courant Number mean: 0.0301892 max: 0.478379
[INFO] MatrixAssemblyU: 266.452 [ms]
DILUPBiCGStab:  Solving for Ux, Initial residual = 0.0270175, Final residual = 0.00213064, No Iterations 5
DILUPBiCGStab:  Solving for Uy, Initial residual = 0.111895, Final residual = 0.00833831, No Iterations 5
DILUPBiCGStab:  Solving for Uz, Initial residual = 0.582979, Final residual = 0.0261148, No Iterations 5
[INFO] MomentumPredictor: 2981.32 [ms]
[INFO] MatrixAssemblyPI: 343.919 [ms]
[INFO] AdjustPhi: 28.7 [ms]
[INFO] ConstrainPressure: 0.004 [ms]
[INFO] MatrixAssemblyPII: 99.18 [ms]
[OGL LOG][Proc: 0]: global_index_init: 0.062 [ms]
[OGL LOG][Proc: 0]p_local_coeffs: call_update: 0 [ms]
[OGL LOG][Proc: 0]p_non_local_coeffs: call_update: 0 [ms]
[OGL LOG][Proc: 0]p: update_local_matrix_data: 55.306 [ms]
[OGL LOG][Proc: 0]p: update_non_local_matrix_data: 0.244 [ms]
[OGL LOG][Proc: 0]p_matrix: call_update: 2.323 [ms]
[OGL LOG][Proc: 0]p_rhs: call_update: 2.688 [ms]
[OGL LOG][Preconditioner.H:121] Generate preconditioner BJ MaxBlockSize 1
[OGL LOG][Proc: 0]p: init_precond: 1.127 [ms]
[OGL LOG][StoppingCriterion.H:237] Creating stopping criterion with minIter 1295 frequency 13
[OGL LOG][Proc: 0]p: generate_solver: 0.003 [ms]
[OGL LOG][Proc: 0]p: solve: 4294.15 [ms]
[OGL LOG][Proc: 0]p: copy_x_back: 9.776 [ms]
[OGL LOG][lduLduBase.H:330] 
Statistics:
	Time per iteration: 1814 [mu s]
	Time per residual norm calculation: 347.000000 [mu s]
	Time per iteration and DOF: 0.067185 [ns]
	Retrieve results bandwidth 2.761000 [GByte/s]
[OGL LOG][Proc: 0]p: solve_multi_gpu: 4317.38 [ms]
BJhipGKOCG:  Solving for p, Initial residual = 0.887862, Final residual = 9.0794e-05, No Iterations 2367
[INFO] SolveP: 4383.43 [ms]
time step continuity errors : sum local = 1.02161e-08, global = 2.81811e-22, cumulative = 6.72405e-21
[INFO] ContinuityError: 51.551 [ms]
[INFO] CorrectBoundary: 1.832 [ms]
[INFO] PISOStep: 5021.85 [ms]
[INFO] MatrixAssemblyPI: 335.596 [ms]
[INFO] AdjustPhi: 19.235 [ms]
[INFO] ConstrainPressure: 0.004 [ms]
[INFO] MatrixAssemblyPII: 98.822 [ms]
[OGL LOG][Proc: 0]: global_index_init: 0.147 [ms]
[OGL LOG][Proc: 0]p_local_coeffs: call_update: 0 [ms]
[OGL LOG][Proc: 0]p_non_local_coeffs: call_update: 0 [ms]
[OGL LOG][Proc: 0]p: update_local_matrix_data: 57.205 [ms]
[OGL LOG][Proc: 0]p: update_non_local_matrix_data: 0.228 [ms]
[OGL LOG][Proc: 0]p_matrix: call_update: 2.376 [ms]
[OGL LOG][Proc: 0]p_rhs: call_update: 3.129 [ms]
[OGL LOG][Preconditioner.H:121] Generate preconditioner BJ MaxBlockSize 1
[OGL LOG][Proc: 0]p: init_precond: 1.081 [ms]
[OGL LOG][StoppingCriterion.H:237] Creating stopping criterion with minIter 1420 frequency 13
[OGL LOG][Proc: 0]p: generate_solver: 0.002 [ms]
[OGL LOG][Proc: 0]p: solve: 4266.52 [ms]
[OGL LOG][Proc: 0]p: copy_x_back: 9.532 [ms]
[OGL LOG][lduLduBase.H:330] 
Statistics:
	Time per iteration: 1812 [mu s]
	Time per residual norm calculation: 337.000000 [mu s]
	Time per iteration and DOF: 0.067111 [ns]
	Retrieve results bandwidth 2.832000 [GByte/s]
[OGL LOG][Proc: 0]p: solve_multi_gpu: 4285.71 [ms]
BJhipGKOCG:  Solving for p, Initial residual = 0.824755, Final residual = 9.96074e-05, No Iterations 2354
[INFO] SolveP: 4353.74 [ms]
time step continuity errors : sum local = 1.13786e-08, global = 4.42509e-22, cumulative = 7.16656e-21
[INFO] ContinuityError: 52.437 [ms]
[INFO] CorrectBoundary: 0.92 [ms]
[INFO] PISOStep: 4974.93 [ms]
[INFO] TimeStep: 13290.7 [ms]
ExecutionTime = 89.76 s  ClockTime = 75 s

Time = 0.001162

Courant Number mean: 0.0326681 max: 0.51186
[INFO] MatrixAssemblyU: 262.149 [ms]
DILUPBiCGStab:  Solving for Ux, Initial residual = 0.0245555, Final residual = 0.00196945, No Iterations 5
DILUPBiCGStab:  Solving for Uy, Initial residual = 0.0982892, Final residual = 0.00769279, No Iterations 5
DILUPBiCGStab:  Solving for Uz, Initial residual = 0.553432, Final residual = 0.0228673, No Iterations 5
[INFO] MomentumPredictor: 2977.67 [ms]
[INFO] MatrixAssemblyPI: 344.77 [ms]
[INFO] AdjustPhi: 24.56 [ms]
[INFO] ConstrainPressure: 0.004 [ms]
[INFO] MatrixAssemblyPII: 100.897 [ms]
[OGL LOG][Proc: 0]: global_index_init: 0.104 [ms]
[OGL LOG][Proc: 0]p_local_coeffs: call_update: 0 [ms]
[OGL LOG][Proc: 0]p_non_local_coeffs: call_update: 0 [ms]
[OGL LOG][Proc: 0]p: update_local_matrix_data: 58.11 [ms]
[OGL LOG][Proc: 0]p: update_non_local_matrix_data: 0.244 [ms]
[OGL LOG][Proc: 0]p_matrix: call_update: 2.27 [ms]
[OGL LOG][Proc: 0]p_rhs: call_update: 3.745 [ms]
[OGL LOG][Preconditioner.H:121] Generate preconditioner BJ MaxBlockSize 1
[OGL LOG][Proc: 0]p: init_precond: 1.103 [ms]
[OGL LOG][StoppingCriterion.H:237] Creating stopping criterion with minIter 1412 frequency 13
[OGL LOG][Proc: 0]p: generate_solver: 0.002 [ms]
[OGL LOG][Proc: 0]p: solve: 4194.6 [ms]
[OGL LOG][Proc: 0]p: copy_x_back: 9.717 [ms]
[OGL LOG][lduLduBase.H:330] 
Statistics:
	Time per iteration: 1822 [mu s]
	Time per residual norm calculation: 346.000000 [mu s]
	Time per iteration and DOF: 0.067481 [ns]
	Retrieve results bandwidth 2.778000 [GByte/s]
[OGL LOG][Proc: 0]p: solve_multi_gpu: 4215.76 [ms]
BJhipGKOCG:  Solving for p, Initial residual = 0.9058, Final residual = 9.12657e-05, No Iterations 2302
[INFO] SolveP: 4287.04 [ms]
time step continuity errors : sum local = 1.00121e-08, global = 6.11296e-23, cumulative = 7.22769e-21
[INFO] ContinuityError: 47.392 [ms]
[INFO] CorrectBoundary: 2.121 [ms]
[INFO] PISOStep: 4918.15 [ms]
[INFO] MatrixAssemblyPI: 335.414 [ms]
[INFO] AdjustPhi: 21.38 [ms]
[INFO] ConstrainPressure: 0.004 [ms]
[INFO] MatrixAssemblyPII: 98.344 [ms]
[OGL LOG][Proc: 0]: global_index_init: 0.12 [ms]
[OGL LOG][Proc: 0]p_local_coeffs: call_update: 0 [ms]
[OGL LOG][Proc: 0]p_non_local_coeffs: call_update: 0 [ms]
[OGL LOG][Proc: 0]p: update_local_matrix_data: 71.18 [ms]
[OGL LOG][Proc: 0]p: update_non_local_matrix_data: 0.245 [ms]
[OGL LOG][Proc: 0]p_matrix: call_update: 2.213 [ms]
[OGL LOG][Proc: 0]p_rhs: call_update: 4.546 [ms]
[OGL LOG][Preconditioner.H:121] Generate preconditioner BJ MaxBlockSize 1
[OGL LOG][Proc: 0]p: init_precond: 1.111 [ms]
[OGL LOG][StoppingCriterion.H:237] Creating stopping criterion with minIter 1381 frequency 13
[OGL LOG][Proc: 0]p: generate_solver: 0.002 [ms]
[OGL LOG][Proc: 0]p: solve: 4129.3 [ms]
[OGL LOG][Proc: 0]p: copy_x_back: 9.408 [ms]
[OGL LOG][lduLduBase.H:330] 
Statistics:
	Time per iteration: 1803 [mu s]
	Time per residual norm calculation: 347.000000 [mu s]
	Time per iteration and DOF: 0.066778 [ns]
	Retrieve results bandwidth 2.869000 [GByte/s]
[OGL LOG][Proc: 0]p: solve_multi_gpu: 4155.79 [ms]
BJhipGKOCG:  Solving for p, Initial residual = 0.860966, Final residual = 9.83965e-05, No Iterations 2289
[INFO] SolveP: 4237.63 [ms]
time step continuity errors : sum local = 1.06762e-08, global = 1.07096e-21, cumulative = 8.29864e-21
[INFO] ContinuityError: 51.222 [ms]
[INFO] CorrectBoundary: 3.71 [ms]
[INFO] PISOStep: 4859.02 [ms]
[INFO] TimeStep: 13061.6 [ms]
ExecutionTime = 105.67 s  ClockTime = 88 s

Time = 0.001328

Courant Number mean: 0.034753 max: 0.481308
[INFO] MatrixAssemblyU: 262.03 [ms]
DILUPBiCGStab:  Solving for Ux, Initial residual = 0.0221231, Final residual = 0.00183358, No Iterations 5
DILUPBiCGStab:  Solving for Uy, Initial residual = 0.0870688, Final residual = 0.00645249, No Iterations 5
DILUPBiCGStab:  Solving for Uz, Initial residual = 0.509662, Final residual = 0.0204184, No Iterations 5
[INFO] MomentumPredictor: 2970.93 [ms]
[INFO] MatrixAssemblyPI: 347.704 [ms]
[INFO] AdjustPhi: 17.905 [ms]
[INFO] ConstrainPressure: 0.005 [ms]
[INFO] MatrixAssemblyPII: 98.186 [ms]
[OGL LOG][Proc: 0]: global_index_init: 0.077 [ms]
[OGL LOG][Proc: 0]p_local_coeffs: call_update: 0 [ms]
[OGL LOG][Proc: 0]p_non_local_coeffs: call_update: 0 [ms]
[OGL LOG][Proc: 0]p: update_local_matrix_data: 53.487 [ms]
[OGL LOG][Proc: 0]p: update_non_local_matrix_data: 0.246 [ms]
[OGL LOG][Proc: 0]p_matrix: call_update: 2.256 [ms]
[OGL LOG][Proc: 0]p_rhs: call_update: 2.458 [ms]
[OGL LOG][Preconditioner.H:121] Generate preconditioner BJ MaxBlockSize 1
[OGL LOG][Proc: 0]p: init_precond: 1.114 [ms]
[OGL LOG][StoppingCriterion.H:237] Creating stopping criterion with minIter 1373 frequency 13
[OGL LOG][Proc: 0]p: generate_solver: 0.003 [ms]
[OGL LOG][Proc: 0]p: solve: 4147.91 [ms]
[OGL LOG][Proc: 0]p: copy_x_back: 9.387 [ms]
[OGL LOG][lduLduBase.H:330] 
Statistics:
	Time per iteration: 1801 [mu s]
	Time per residual norm calculation: 338.000000 [mu s]
	Time per iteration and DOF: 0.066704 [ns]
	Retrieve results bandwidth 2.876000 [GByte/s]
[OGL LOG][Proc: 0]p: solve_multi_gpu: 4171.38 [ms]
BJhipGKOCG:  Solving for p, Initial residual = 0.883722, Final residual = 9.62794e-05, No Iterations 2302
[INFO] SolveP: 4236.85 [ms]
time step continuity errors : sum local = 1.0727e-08, global = 2.34769e-22, cumulative = 8.53341e-21
[INFO] ContinuityError: 53.079 [ms]
[INFO] CorrectBoundary: 2.089 [ms]
[INFO] PISOStep: 4867.36 [ms]
[INFO] MatrixAssemblyPI: 338.385 [ms]
[INFO] AdjustPhi: 22.031 [ms]
[INFO] ConstrainPressure: 0.004 [ms]
[INFO] MatrixAssemblyPII: 97.977 [ms]
[OGL LOG][Proc: 0]: global_index_init: 0.175 [ms]
[OGL LOG][Proc: 0]p_local_coeffs: call_update: 0 [ms]
[OGL LOG][Proc: 0]p_non_local_coeffs: call_update: 0 [ms]
[OGL LOG][Proc: 0]p: update_local_matrix_data: 58.944 [ms]
[OGL LOG][Proc: 0]p: update_non_local_matrix_data: 0.244 [ms]
[OGL LOG][Proc: 0]p_matrix: call_update: 2.055 [ms]
[OGL LOG][Proc: 0]p_rhs: call_update: 2.585 [ms]
[OGL LOG][Preconditioner.H:121] Generate preconditioner BJ MaxBlockSize 1
[OGL LOG][Proc: 0]p: init_precond: 1.107 [ms]
[OGL LOG][StoppingCriterion.H:237] Creating stopping criterion with minIter 1381 frequency 13
[OGL LOG][Proc: 0]p: generate_solver: 0.003 [ms]
[OGL LOG][Proc: 0]p: solve: 4215.15 [ms]
[OGL LOG][Proc: 0]p: copy_x_back: 9.524 [ms]
[OGL LOG][lduLduBase.H:330] 
Statistics:
	Time per iteration: 1831 [mu s]
	Time per residual norm calculation: 355.000000 [mu s]
	Time per iteration and DOF: 0.067815 [ns]
	Retrieve results bandwidth 2.834000 [GByte/s]
[OGL LOG][Proc: 0]p: solve_multi_gpu: 4244.28 [ms]
BJhipGKOCG:  Solving for p, Initial residual = 0.817874, Final residual = 8.91321e-05, No Iterations 2302
[INFO] SolveP: 4313.93 [ms]
time step continuity errors : sum local = 1.00677e-08, global = 1.2347e-21, cumulative = 9.76811e-21
[INFO] ContinuityError: 50.564 [ms]
[INFO] CorrectBoundary: 2.241 [ms]
[INFO] PISOStep: 4941.33 [ms]
[INFO] TimeStep: 13088.5 [ms]
ExecutionTime = 121.61 s  ClockTime = 101 s

Time = 0.001494

Courant Number mean: 0.036702 max: 0.517999
[INFO] MatrixAssemblyU: 258.906 [ms]
DILUPBiCGStab:  Solving for Ux, Initial residual = 0.020546, Final residual = 0.00171313, No Iterations 5
DILUPBiCGStab:  Solving for Uy, Initial residual = 0.0819318, Final residual = 0.0061119, No Iterations 5
DILUPBiCGStab:  Solving for Uz, Initial residual = 0.505826, Final residual = 0.0192039, No Iterations 5
[INFO] MomentumPredictor: 2963.81 [ms]
[INFO] MatrixAssemblyPI: 343.862 [ms]
[INFO] AdjustPhi: 20.214 [ms]
[INFO] ConstrainPressure: 0.004 [ms]
[INFO] MatrixAssemblyPII: 99.715 [ms]
[OGL LOG][Proc: 0]: global_index_init: 0.071 [ms]
[OGL LOG][Proc: 0]p_local_coeffs: call_update: 0 [ms]
[OGL LOG][Proc: 0]p_non_local_coeffs: call_update: 0 [ms]
[OGL LOG][Proc: 0]p: update_local_matrix_data: 52.475 [ms]
[OGL LOG][Proc: 0]p: update_non_local_matrix_data: 0.236 [ms]
[OGL LOG][Proc: 0]p_matrix: call_update: 2.077 [ms]
[OGL LOG][Proc: 0]p_rhs: call_update: 2.687 [ms]
[OGL LOG][Preconditioner.H:121] Generate preconditioner BJ MaxBlockSize 1
[OGL LOG][Proc: 0]p: init_precond: 1.123 [ms]
[OGL LOG][StoppingCriterion.H:237] Creating stopping criterion with minIter 1381 frequency 13
[OGL LOG][Proc: 0]p: generate_solver: 0.003 [ms]
[OGL LOG][Proc: 0]p: solve: 3754.88 [ms]
[OGL LOG][Proc: 0]p: copy_x_back: 9.601 [ms]
[OGL LOG][lduLduBase.H:330] 
Statistics:
	Time per iteration: 1804 [mu s]
	Time per residual norm calculation: 346.000000 [mu s]
	Time per iteration and DOF: 0.066815 [ns]
	Retrieve results bandwidth 2.812000 [GByte/s]
[OGL LOG][Proc: 0]p: solve_multi_gpu: 3779.99 [ms]
BJhipGKOCG:  Solving for p, Initial residual = 0.901642, Final residual = 8.87486e-05, No Iterations 2081
[INFO] SolveP: 3843.3 [ms]
time step continuity errors : sum local = 9.68549e-09, global = 1.39403e-22, cumulative = 9.90751e-21
[INFO] ContinuityError: 50.984 [ms]
[INFO] CorrectBoundary: 1.638 [ms]
[INFO] PISOStep: 4471.73 [ms]
[INFO] MatrixAssemblyPI: 336.896 [ms]
[INFO] AdjustPhi: 19.667 [ms]
[INFO] ConstrainPressure: 0.004 [ms]
[INFO] MatrixAssemblyPII: 98.324 [ms]
[OGL LOG][Proc: 0]: global_index_init: 0.111 [ms]
[OGL LOG][Proc: 0]p_local_coeffs: call_update: 0 [ms]
[OGL LOG][Proc: 0]p_non_local_coeffs: call_update: 0 [ms]
[OGL LOG][Proc: 0]p: update_local_matrix_data: 54.313 [ms]
[OGL LOG][Proc: 0]p: update_non_local_matrix_data: 0.241 [ms]
[OGL LOG][Proc: 0]p_matrix: call_update: 2.282 [ms]
[OGL LOG][Proc: 0]p_rhs: call_update: 3.346 [ms]
[OGL LOG][Preconditioner.H:121] Generate preconditioner BJ MaxBlockSize 1
[OGL LOG][Proc: 0]p: init_precond: 1.382 [ms]
[OGL LOG][StoppingCriterion.H:237] Creating stopping criterion with minIter 1248 frequency 12
[OGL LOG][Proc: 0]p: generate_solver: 0.003 [ms]
[OGL LOG][Proc: 0]p: solve: 3791.42 [ms]
[OGL LOG][Proc: 0]p: copy_x_back: 9.358 [ms]
[OGL LOG][lduLduBase.H:330] 
Statistics:
	Time per iteration: 1825 [mu s]
	Time per residual norm calculation: 347.000000 [mu s]
	Time per iteration and DOF: 0.067593 [ns]
	Retrieve results bandwidth 2.885000 [GByte/s]
[OGL LOG][Proc: 0]p: solve_multi_gpu: 3814.26 [ms]
BJhipGKOCG:  Solving for p, Initial residual = 0.851756, Final residual = 8.6295e-05, No Iterations 2077
[INFO] SolveP: 3879.32 [ms]
time step continuity errors : sum local = 9.32535e-09, global = 7.6111e-22, cumulative = 1.06686e-20
[INFO] ContinuityError: 50.766 [ms]
[INFO] CorrectBoundary: 0.917 [ms]
[INFO] PISOStep: 4500.24 [ms]
[INFO] TimeStep: 12240.1 [ms]
ExecutionTime = 136.42 s  ClockTime = 114 s

Time = 0.00166

Courant Number mean: 0.0383957 max: 0.483672
[INFO] MatrixAssemblyU: 259.552 [ms]
DILUPBiCGStab:  Solving for Ux, Initial residual = 0.0193497, Final residual = 0.00162873, No Iterations 5
DILUPBiCGStab:  Solving for Uy, Initial residual = 0.0736065, Final residual = 0.00529558, No Iterations 5
DILUPBiCGStab:  Solving for Uz, Initial residual = 0.48121, Final residual = 0.0176576, No Iterations 5
[INFO] MomentumPredictor: 2958.9 [ms]
[INFO] MatrixAssemblyPI: 345.878 [ms]
[INFO] AdjustPhi: 23.547 [ms]
[INFO] ConstrainPressure: 0.004 [ms]
[INFO] MatrixAssemblyPII: 98.99 [ms]
[OGL LOG][Proc: 0]: global_index_init: 0.074 [ms]
[OGL LOG][Proc: 0]p_local_coeffs: call_update: 0 [ms]
[OGL LOG][Proc: 0]p_non_local_coeffs: call_update: 0 [ms]
[OGL LOG][Proc: 0]p: update_local_matrix_data: 67.209 [ms]
[OGL LOG][Proc: 0]p: update_non_local_matrix_data: 0.263 [ms]
[OGL LOG][Proc: 0]p_matrix: call_update: 2.389 [ms]
[OGL LOG][Proc: 0]p_rhs: call_update: 3.572 [ms]
[OGL LOG][Preconditioner.H:121] Generate preconditioner BJ MaxBlockSize 1
[OGL LOG][Proc: 0]p: init_precond: 1.108 [ms]
[OGL LOG][StoppingCriterion.H:237] Creating stopping criterion with minIter 1246 frequency 12
[OGL LOG][Proc: 0]p: generate_solver: 0.003 [ms]
[OGL LOG][Proc: 0]p: solve: 4204.22 [ms]
[OGL LOG][Proc: 0]p: copy_x_back: 9.264 [ms]
[OGL LOG][lduLduBase.H:330] 
Statistics:
	Time per iteration: 1833 [mu s]
	Time per residual norm calculation: 318.000000 [mu s]
	Time per iteration and DOF: 0.067889 [ns]
	Retrieve results bandwidth 2.914000 [GByte/s]
[OGL LOG][Proc: 0]p: solve_multi_gpu: 4228.58 [ms]
BJhipGKOCG:  Solving for p, Initial residual = 0.882643, Final residual = 9.15387e-05, No Iterations 2293
[INFO] SolveP: 4308.68 [ms]
time step continuity errors : sum local = 1.03107e-08, global = 7.10298e-22, cumulative = 1.13789e-20
[INFO] ContinuityError: 50.165 [ms]
[INFO] CorrectBoundary: 2.794 [ms]
[INFO] PISOStep: 4942.66 [ms]
[INFO] MatrixAssemblyPI: 337.008 [ms]
[INFO] AdjustPhi: 18.939 [ms]
[INFO] ConstrainPressure: 0.005 [ms]
[INFO] MatrixAssemblyPII: 97.945 [ms]
[OGL LOG][Proc: 0]: global_index_init: 0.352 [ms]
[OGL LOG][Proc: 0]p_local_coeffs: call_update: 0 [ms]
[OGL LOG][Proc: 0]p_non_local_coeffs: call_update: 0 [ms]
[OGL LOG][Proc: 0]p: update_local_matrix_data: 55.813 [ms]
[OGL LOG][Proc: 0]p: update_non_local_matrix_data: 0.247 [ms]
[OGL LOG][Proc: 0]p_matrix: call_update: 2.26 [ms]
[OGL LOG][Proc: 0]p_rhs: call_update: 2.472 [ms]
[OGL LOG][Preconditioner.H:121] Generate preconditioner BJ MaxBlockSize 1
[OGL LOG][Proc: 0]p: init_precond: 1.102 [ms]
[OGL LOG][StoppingCriterion.H:237] Creating stopping criterion with minIter 1375 frequency 13
[OGL LOG][Proc: 0]p: generate_solver: 0.003 [ms]
[OGL LOG][Proc: 0]p: solve: 4161.86 [ms]
[OGL LOG][Proc: 0]p: copy_x_back: 10.485 [ms]
[OGL LOG][lduLduBase.H:330] 
Statistics:
	Time per iteration: 1818 [mu s]
	Time per residual norm calculation: 340.000000 [mu s]
	Time per iteration and DOF: 0.067333 [ns]
	Retrieve results bandwidth 2.575000 [GByte/s]
[OGL LOG][Proc: 0]p: solve_multi_gpu: 4185.07 [ms]
BJhipGKOCG:  Solving for p, Initial residual = 0.813515, Final residual = 9.11854e-05, No Iterations 2289
[INFO] SolveP: 4251.75 [ms]
time step continuity errors : sum local = 1.03998e-08, global = 9.18458e-22, cumulative = 1.22974e-20
[INFO] ContinuityError: 50.467 [ms]
[INFO] CorrectBoundary: 2.102 [ms]
[INFO] PISOStep: 4872.46 [ms]
[INFO] TimeStep: 13078.4 [ms]
ExecutionTime = 152.36 s  ClockTime = 127 s

Time = 0.001826

Courant Number mean: 0.0400177 max: 0.524621
[INFO] MatrixAssemblyU: 259.705 [ms]
DILUPBiCGStab:  Solving for Ux, Initial residual = 0.0181641, Final residual = 0.00152081, No Iterations 5
DILUPBiCGStab:  Solving for Uy, Initial residual = 0.0719803, Final residual = 0.00511566, No Iterations 5
DILUPBiCGStab:  Solving for Uz, Initial residual = 0.485046, Final residual = 0.0171597, No Iterations 5
[INFO] MomentumPredictor: 2963.04 [ms]
[INFO] MatrixAssemblyPI: 343.613 [ms]
[INFO] AdjustPhi: 19.927 [ms]
[INFO] ConstrainPressure: 0.005 [ms]
[INFO] MatrixAssemblyPII: 99.207 [ms]
[OGL LOG][Proc: 0]: global_index_init: 0.108 [ms]
[OGL LOG][Proc: 0]p_local_coeffs: call_update: 0 [ms]
[OGL LOG][Proc: 0]p_non_local_coeffs: call_update: 0 [ms]
[OGL LOG][Proc: 0]p: update_local_matrix_data: 60.688 [ms]
[OGL LOG][Proc: 0]p: update_non_local_matrix_data: 0.24 [ms]
[OGL LOG][Proc: 0]p_matrix: call_update: 2.329 [ms]
[OGL LOG][Proc: 0]p_rhs: call_update: 6.141 [ms]
[OGL LOG][Preconditioner.H:121] Generate preconditioner BJ MaxBlockSize 1
[OGL LOG][Proc: 0]p: init_precond: 1.106 [ms]
[OGL LOG][StoppingCriterion.H:237] Creating stopping criterion with minIter 1373 frequency 13
[OGL LOG][Proc: 0]p: generate_solver: 0.002 [ms]
[OGL LOG][Proc: 0]p: solve: 3995.53 [ms]
[OGL LOG][Proc: 0]p: copy_x_back: 9.503 [ms]
[OGL LOG][lduLduBase.H:330] 
Statistics:
	Time per iteration: 1807 [mu s]
	Time per residual norm calculation: 310.000000 [mu s]
	Time per iteration and DOF: 0.066926 [ns]
	Retrieve results bandwidth 2.841000 [GByte/s]
[OGL LOG][Proc: 0]p: solve_multi_gpu: 4019.71 [ms]
BJhipGKOCG:  Solving for p, Initial residual = 0.901632, Final residual = 9.58627e-05, No Iterations 2211
[INFO] SolveP: 4090.87 [ms]
time step continuity errors : sum local = 1.07368e-08, global = 2.47505e-22, cumulative = 1.25449e-20
[INFO] ContinuityError: 49.652 [ms]
[INFO] CorrectBoundary: 1.59 [ms]
[INFO] PISOStep: 4717.27 [ms]
[INFO] MatrixAssemblyPI: 337.005 [ms]
[INFO] AdjustPhi: 19.789 [ms]
[INFO] ConstrainPressure: 0.004 [ms]
[INFO] MatrixAssemblyPII: 98.759 [ms]
[OGL LOG][Proc: 0]: global_index_init: 0.222 [ms]
[OGL LOG][Proc: 0]p_local_coeffs: call_update: 0 [ms]
[OGL LOG][Proc: 0]p_non_local_coeffs: call_update: 0 [ms]
[OGL LOG][Proc: 0]p: update_local_matrix_data: 55.781 [ms]
[OGL LOG][Proc: 0]p: update_non_local_matrix_data: 0.23 [ms]
[OGL LOG][Proc: 0]p_matrix: call_update: 2.222 [ms]
[OGL LOG][Proc: 0]p_rhs: call_update: 3.804 [ms]
[OGL LOG][Preconditioner.H:121] Generate preconditioner BJ MaxBlockSize 1
[OGL LOG][Proc: 0]p: init_precond: 1.099 [ms]
[OGL LOG][StoppingCriterion.H:237] Creating stopping criterion with minIter 1326 frequency 13
[OGL LOG][Proc: 0]p: generate_solver: 0.002 [ms]
[OGL LOG][Proc: 0]p: solve: 4034.7 [ms]
[OGL LOG][Proc: 0]p: copy_x_back: 9.612 [ms]
[OGL LOG][lduLduBase.H:330] 
Statistics:
	Time per iteration: 1814 [mu s]
	Time per residual norm calculation: 317.000000 [mu s]
	Time per iteration and DOF: 0.067185 [ns]
	Retrieve results bandwidth 2.808000 [GByte/s]
[OGL LOG][Proc: 0]p: solve_multi_gpu: 4059.19 [ms]
BJhipGKOCG:  Solving for p, Initial residual = 0.847151, Final residual = 9.91458e-05, No Iterations 2224
[INFO] SolveP: 4125.85 [ms]
time step continuity errors : sum local = 1.10112e-08, global = -4.5706e-22, cumulative = 1.20878e-20
[INFO] ContinuityError: 50.837 [ms]
[INFO] CorrectBoundary: 1.209 [ms]
[INFO] PISOStep: 4746.48 [ms]
[INFO] TimeStep: 12731.1 [ms]
ExecutionTime = 167.85 s  ClockTime = 139 s

Time = 0.001992

Courant Number mean: 0.041449 max: 0.486752
[INFO] MatrixAssemblyU: 261.265 [ms]
DILUPBiCGStab:  Solving for Ux, Initial residual = 0.0175765, Final residual = 0.00146994, No Iterations 5
DILUPBiCGStab:  Solving for Uy, Initial residual = 0.0655098, Final residual = 0.00449808, No Iterations 5
DILUPBiCGStab:  Solving for Uz, Initial residual = 0.471705, Final residual = 0.0167791, No Iterations 5
[INFO] MomentumPredictor: 2975.78 [ms]
[INFO] MatrixAssemblyPI: 346.15 [ms]
[INFO] AdjustPhi: 20.783 [ms]
[INFO] ConstrainPressure: 0.005 [ms]
[INFO] MatrixAssemblyPII: 98.541 [ms]
[OGL LOG][Proc: 0]: global_index_init: 0.188 [ms]
[OGL LOG][Proc: 0]p_local_coeffs: call_update: 0 [ms]
[OGL LOG][Proc: 0]p_non_local_coeffs: call_update: 0 [ms]
[OGL LOG][Proc: 0]p: update_local_matrix_data: 59.023 [ms]
[OGL LOG][Proc: 0]p: update_non_local_matrix_data: 0.242 [ms]
[OGL LOG][Proc: 0]p_matrix: call_update: 2.176 [ms]
[OGL LOG][Proc: 0]p_rhs: call_update: 2.862 [ms]
[OGL LOG][Preconditioner.H:121] Generate preconditioner BJ MaxBlockSize 1
[OGL LOG][Proc: 0]p: init_precond: 1.131 [ms]
[OGL LOG][StoppingCriterion.H:237] Creating stopping criterion with minIter 1334 frequency 13
[OGL LOG][Proc: 0]p: generate_solver: 0.003 [ms]
[OGL LOG][Proc: 0]p: solve: 4187.15 [ms]
[OGL LOG][Proc: 0]p: copy_x_back: 9.154 [ms]
[OGL LOG][lduLduBase.H:330] 
Statistics:
	Time per iteration: 1829 [mu s]
	Time per residual norm calculation: 344.000000 [mu s]
	Time per iteration and DOF: 0.067741 [ns]
	Retrieve results bandwidth 2.949000 [GByte/s]
[OGL LOG][Proc: 0]p: solve_multi_gpu: 4203.77 [ms]
BJhipGKOCG:  Solving for p, Initial residual = 0.884124, Final residual = 9.23488e-05, No Iterations 2289
[INFO] SolveP: 4275.73 [ms]
time step continuity errors : sum local = 1.07498e-08, global = 6.5845e-22, cumulative = 1.27463e-20
[INFO] ContinuityError: 49.545 [ms]
[INFO] CorrectBoundary: 2.473 [ms]
[INFO] PISOStep: 4903.65 [ms]
[INFO] MatrixAssemblyPI: 338.719 [ms]
[INFO] AdjustPhi: 19.435 [ms]
[INFO] ConstrainPressure: 0.005 [ms]
[INFO] MatrixAssemblyPII: 99.839 [ms]
[OGL LOG][Proc: 0]: global_index_init: 0.108 [ms]
[OGL LOG][Proc: 0]p_local_coeffs: call_update: 0 [ms]
[OGL LOG][Proc: 0]p_non_local_coeffs: call_update: 0 [ms]
[OGL LOG][Proc: 0]p: update_local_matrix_data: 64.221 [ms]
[OGL LOG][Proc: 0]p: update_non_local_matrix_data: 0.237 [ms]
[OGL LOG][Proc: 0]p_matrix: call_update: 2.299 [ms]
[OGL LOG][Proc: 0]p_rhs: call_update: 2.584 [ms]
[OGL LOG][Preconditioner.H:121] Generate preconditioner BJ MaxBlockSize 1
[OGL LOG][Proc: 0]p: init_precond: 1.115 [ms]
[OGL LOG][StoppingCriterion.H:237] Creating stopping criterion with minIter 1373 frequency 13
[OGL LOG][Proc: 0]p: generate_solver: 0.003 [ms]
[OGL LOG][Proc: 0]p: solve: 4116.62 [ms]
[OGL LOG][Proc: 0]p: copy_x_back: 9.355 [ms]
[OGL LOG][lduLduBase.H:330] 
Statistics:
	Time per iteration: 1798 [mu s]
	Time per residual norm calculation: 347.000000 [mu s]
	Time per iteration and DOF: 0.066593 [ns]
	Retrieve results bandwidth 2.886000 [GByte/s]
[OGL LOG][Proc: 0]p: solve_multi_gpu: 4140.59 [ms]
BJhipGKOCG:  Solving for p, Initial residual = 0.813583, Final residual = 8.39161e-05, No Iterations 2289
[INFO] SolveP: 4215.55 [ms]
time step continuity errors : sum local = 9.87728e-09, global = 2.65171e-22, cumulative = 1.30114e-20
[INFO] ContinuityError: 51.631 [ms]
[INFO] CorrectBoundary: 1.933 [ms]
[INFO] PISOStep: 4837.47 [ms]
[INFO] TimeStep: 13023.8 [ms]
ExecutionTime = 183.71 s  ClockTime = 153 s

Time = 0.002158

Courant Number mean: 0.0428474 max: 0.532247
[INFO] MatrixAssemblyU: 262.407 [ms]
DILUPBiCGStab:  Solving for Ux, Initial residual = 0.0166374, Final residual = 0.00136886, No Iterations 5
DILUPBiCGStab:  Solving for Uy, Initial residual = 0.0655573, Final residual = 0.00442747, No Iterations 5
DILUPBiCGStab:  Solving for Uz, Initial residual = 0.479203, Final residual = 0.0162882, No Iterations 5
[INFO] MomentumPredictor: 2958.73 [ms]
[INFO] MatrixAssemblyPI: 343.378 [ms]
[INFO] AdjustPhi: 20.864 [ms]
[INFO] ConstrainPressure: 0.004 [ms]
[INFO] MatrixAssemblyPII: 98.238 [ms]
[OGL LOG][Proc: 0]: global_index_init: 0.252 [ms]
[OGL LOG][Proc: 0]p_local_coeffs: call_update: 0 [ms]
[OGL LOG][Proc: 0]p_non_local_coeffs: call_update: 0 [ms]
[OGL LOG][Proc: 0]p: update_local_matrix_data: 55.779 [ms]
[OGL LOG][Proc: 0]p: update_non_local_matrix_data: 0.234 [ms]
[OGL LOG][Proc: 0]p_matrix: call_update: 3.162 [ms]
[OGL LOG][Proc: 0]p_rhs: call_update: 2.965 [ms]
[OGL LOG][Preconditioner.H:121] Generate preconditioner BJ MaxBlockSize 1
[OGL LOG][Proc: 0]p: init_precond: 1.117 [ms]
[OGL LOG][StoppingCriterion.H:237] Creating stopping criterion with minIter 1373 frequency 13
[OGL LOG][Proc: 0]p: generate_solver: 0.003 [ms]
[OGL LOG][Proc: 0]p: solve: 4124.92 [ms]
[OGL LOG][Proc: 0]p: copy_x_back: 9.318 [ms]
[OGL LOG][lduLduBase.H:330] 
Statistics:
	Time per iteration: 1802 [mu s]
	Time per residual norm calculation: 345.000000 [mu s]
	Time per iteration and DOF: 0.066741 [ns]
	Retrieve results bandwidth 2.897000 [GByte/s]
[OGL LOG][Proc: 0]p: solve_multi_gpu: 4146.22 [ms]
BJhipGKOCG:  Solving for p, Initial residual = 0.902366, Final residual = 8.45944e-05, No Iterations 2289
[INFO] SolveP: 4212.57 [ms]
time step continuity errors : sum local = 9.84859e-09, global = 1.29601e-21, cumulative = 1.43075e-20
[INFO] ContinuityError: 51.261 [ms]
[INFO] CorrectBoundary: 1.12 [ms]
[INFO] PISOStep: 4838.97 [ms]
[INFO] MatrixAssemblyPI: 336.074 [ms]
[INFO] AdjustPhi: 22.129 [ms]
[INFO] ConstrainPressure: 0.004 [ms]
[INFO] MatrixAssemblyPII: 97.979 [ms]
[OGL LOG][Proc: 0]: global_index_init: 0.331 [ms]
[OGL LOG][Proc: 0]p_local_coeffs: call_update: 0 [ms]
[OGL LOG][Proc: 0]p_non_local_coeffs: call_update: 0 [ms]
[OGL LOG][Proc: 0]p: update_local_matrix_data: 73.679 [ms]
[OGL LOG][Proc: 0]p: update_non_local_matrix_data: 0.246 [ms]
[OGL LOG][Proc: 0]p_matrix: call_update: 2.294 [ms]
[OGL LOG][Proc: 0]p_rhs: call_update: 5.998 [ms]
[OGL LOG][Preconditioner.H:121] Generate preconditioner BJ MaxBlockSize 1
[OGL LOG][Proc: 0]p: init_precond: 1.121 [ms]
[OGL LOG][StoppingCriterion.H:237] Creating stopping criterion with minIter 1373 frequency 13
[OGL LOG][Proc: 0]p: generate_solver: 0.003 [ms]
[OGL LOG][Proc: 0]p: solve: 4128.95 [ms]
[OGL LOG][Proc: 0]p: copy_x_back: 9.84 [ms]
[OGL LOG][lduLduBase.H:330] 
Statistics:
	Time per iteration: 1803 [mu s]
	Time per residual norm calculation: 339.000000 [mu s]
	Time per iteration and DOF: 0.066778 [ns]
	Retrieve results bandwidth 2.743000 [GByte/s]
[OGL LOG][Proc: 0]p: solve_multi_gpu: 4152.55 [ms]
BJhipGKOCG:  Solving for p, Initial residual = 0.844266, Final residual = 7.84675e-05, No Iterations 2289
[INFO] SolveP: 4236.85 [ms]
time step continuity errors : sum local = 9.07135e-09, global = 1.35272e-21, cumulative = 1.56602e-20
[INFO] ContinuityError: 51.758 [ms]
[INFO] CorrectBoundary: 1.432 [ms]
[INFO] PISOStep: 4858.45 [ms]
[INFO] TimeStep: 12962.8 [ms]
ExecutionTime = 199.51 s  ClockTime = 165 s

Time = 0.002324

Courant Number mean: 0.0440891 max: 0.489795
[INFO] MatrixAssemblyU: 259.637 [ms]
DILUPBiCGStab:  Solving for Ux, Initial residual = 0.0164082, Final residual = 0.0013447, No Iterations 5
DILUPBiCGStab:  Solving for Uy, Initial residual = 0.060424, Final residual = 0.00392981, No Iterations 5
DILUPBiCGStab:  Solving for Uz, Initial residual = 0.46969, Final residual = 0.0158361, No Iterations 5
[INFO] MomentumPredictor: 2975.23 [ms]
[INFO] MatrixAssemblyPI: 346.242 [ms]
[INFO] AdjustPhi: 18.332 [ms]
[INFO] ConstrainPressure: 0.004 [ms]
[INFO] MatrixAssemblyPII: 97.579 [ms]
[OGL LOG][Proc: 0]: global_index_init: 0.154 [ms]
[OGL LOG][Proc: 0]p_local_coeffs: call_update: 0 [ms]
[OGL LOG][Proc: 0]p_non_local_coeffs: call_update: 0 [ms]
[OGL LOG][Proc: 0]p: update_local_matrix_data: 56.356 [ms]
[OGL LOG][Proc: 0]p: update_non_local_matrix_data: 0.237 [ms]
[OGL LOG][Proc: 0]p_matrix: call_update: 2.244 [ms]
[OGL LOG][Proc: 0]p_rhs: call_update: 2.985 [ms]
[OGL LOG][Preconditioner.H:121] Generate preconditioner BJ MaxBlockSize 1
[OGL LOG][Proc: 0]p: init_precond: 1.12 [ms]
[OGL LOG][StoppingCriterion.H:237] Creating stopping criterion with minIter 1373 frequency 13
[OGL LOG][Proc: 0]p: generate_solver: 0.003 [ms]
[OGL LOG][Proc: 0]p: solve: 4110.01 [ms]
[OGL LOG][Proc: 0]p: copy_x_back: 9.346 [ms]
[OGL LOG][lduLduBase.H:330] 
Statistics:
	Time per iteration: 1795 [mu s]
	Time per residual norm calculation: 313.000000 [mu s]
	Time per iteration and DOF: 0.066481 [ns]
	Retrieve results bandwidth 2.888000 [GByte/s]
[OGL LOG][Proc: 0]p: solve_multi_gpu: 4132.23 [ms]
BJhipGKOCG:  Solving for p, Initial residual = 0.886483, Final residual = 9.00619e-05, No Iterations 2289
[INFO] SolveP: 4199.3 [ms]
time step continuity errors : sum local = 1.09147e-08, global = 8.30343e-22, cumulative = 1.64905e-20
[INFO] ContinuityError: 49.564 [ms]
[INFO] CorrectBoundary: 1.767 [ms]
[INFO] PISOStep: 4824.8 [ms]
[INFO] MatrixAssemblyPI: 334.069 [ms]
[INFO] AdjustPhi: 21.525 [ms]
[INFO] ConstrainPressure: 0.004 [ms]
[INFO] MatrixAssemblyPII: 101.195 [ms]
[OGL LOG][Proc: 0]: global_index_init: 0.124 [ms]
[OGL LOG][Proc: 0]p_local_coeffs: call_update: 0 [ms]
[OGL LOG][Proc: 0]p_non_local_coeffs: call_update: 0 [ms]
[OGL LOG][Proc: 0]p: update_local_matrix_data: 54.761 [ms]
[OGL LOG][Proc: 0]p: update_non_local_matrix_data: 0.227 [ms]
[OGL LOG][Proc: 0]p_matrix: call_update: 2.043 [ms]
[OGL LOG][Proc: 0]p_rhs: call_update: 2.427 [ms]
[OGL LOG][Preconditioner.H:121] Generate preconditioner BJ MaxBlockSize 1
[OGL LOG][Proc: 0]p: init_precond: 1.105 [ms]
[OGL LOG][StoppingCriterion.H:237] Creating stopping criterion with minIter 1373 frequency 13
[OGL LOG][Proc: 0]p: generate_solver: 0.003 [ms]
[OGL LOG][Proc: 0]p: solve: 4184.19 [ms]
[OGL LOG][Proc: 0]p: copy_x_back: 9.164 [ms]
[OGL LOG][lduLduBase.H:330] 
Statistics:
	Time per iteration: 1827 [mu s]
	Time per residual norm calculation: 357.000000 [mu s]
	Time per iteration and DOF: 0.067667 [ns]
	Retrieve results bandwidth 2.946000 [GByte/s]
[OGL LOG][Proc: 0]p: solve_multi_gpu: 4213.09 [ms]
BJhipGKOCG:  Solving for p, Initial residual = 0.814772, Final residual = 8.26911e-05, No Iterations 2289
[INFO] SolveP: 4278.56 [ms]
time step continuity errors : sum local = 1.01193e-08, global = 8.71635e-22, cumulative = 1.73622e-20
[INFO] ContinuityError: 58.906 [ms]
[INFO] CorrectBoundary: 2.84 [ms]
[INFO] PISOStep: 4906.89 [ms]
[INFO] TimeStep: 13011.2 [ms]
ExecutionTime = 215.36 s  ClockTime = 178 s

Time = 0.00249

Courant Number mean: 0.0453247 max: 0.540991
[INFO] MatrixAssemblyU: 260.617 [ms]
DILUPBiCGStab:  Solving for Ux, Initial residual = 0.0156549, Final residual = 0.0012466, No Iterations 5
DILUPBiCGStab:  Solving for Uy, Initial residual = 0.0613081, Final residual = 0.00392734, No Iterations 5
DILUPBiCGStab:  Solving for Uz, Initial residual = 0.479878, Final residual = 0.0157071, No Iterations 5
[INFO] MomentumPredictor: 2968.84 [ms]
[INFO] MatrixAssemblyPI: 342.586 [ms]
[INFO] AdjustPhi: 20.26 [ms]
[INFO] ConstrainPressure: 0.005 [ms]
[INFO] MatrixAssemblyPII: 98.312 [ms]
[OGL LOG][Proc: 0]: global_index_init: 0.151 [ms]
[OGL LOG][Proc: 0]p_local_coeffs: call_update: 0 [ms]
[OGL LOG][Proc: 0]p_non_local_coeffs: call_update: 0 [ms]
[OGL LOG][Proc: 0]p: update_local_matrix_data: 58.373 [ms]
[OGL LOG][Proc: 0]p: update_non_local_matrix_data: 0.233 [ms]
[OGL LOG][Proc: 0]p_matrix: call_update: 2.15 [ms]
[OGL LOG][Proc: 0]p_rhs: call_update: 2.482 [ms]
[OGL LOG][Preconditioner.H:121] Generate preconditioner BJ MaxBlockSize 1
[OGL LOG][Proc: 0]p: init_precond: 1.161 [ms]
[OGL LOG][StoppingCriterion.H:237] Creating stopping criterion with minIter 1373 frequency 13
[OGL LOG][Proc: 0]p: generate_solver: 0.003 [ms]
[OGL LOG][Proc: 0]p: solve: 4113.61 [ms]
[OGL LOG][Proc: 0]p: copy_x_back: 9.48 [ms]
[OGL LOG][lduLduBase.H:330] 
Statistics:
	Time per iteration: 1797 [mu s]
	Time per residual norm calculation: 349.000000 [mu s]
	Time per iteration and DOF: 0.066556 [ns]
	Retrieve results bandwidth 2.848000 [GByte/s]
[OGL LOG][Proc: 0]p: solve_multi_gpu: 4131.03 [ms]
BJhipGKOCG:  Solving for p, Initial residual = 0.903189, Final residual = 8.58067e-05, No Iterations 2289
[INFO] SolveP: 4200 [ms]
time step continuity errors : sum local = 1.04382e-08, global = 7.07028e-23, cumulative = 1.74329e-20
[INFO] ContinuityError: 50.324 [ms]
[INFO] CorrectBoundary: 2.129 [ms]
[INFO] PISOStep: 4825.3 [ms]
[INFO] MatrixAssemblyPI: 334.922 [ms]
[INFO] AdjustPhi: 20.938 [ms]
[INFO] ConstrainPressure: 0.004 [ms]
[INFO] MatrixAssemblyPII: 97.914 [ms]
[OGL LOG][Proc: 0]: global_index_init: 0.298 [ms]
[OGL LOG][Proc: 0]p_local_coeffs: call_update: 0 [ms]
[OGL LOG][Proc: 0]p_non_local_coeffs: call_update: 0 [ms]
[OGL LOG][Proc: 0]p: update_local_matrix_data: 55.597 [ms]
[OGL LOG][Proc: 0]p: update_non_local_matrix_data: 0.228 [ms]
[OGL LOG][Proc: 0]p_matrix: call_update: 2.257 [ms]
[OGL LOG][Proc: 0]p_rhs: call_update: 3.25 [ms]
[OGL LOG][Preconditioner.H:121] Generate preconditioner BJ MaxBlockSize 1
[OGL LOG][Proc: 0]p: init_precond: 1.093 [ms]
[OGL LOG][StoppingCriterion.H:237] Creating stopping criterion with minIter 1373 frequency 13
[OGL LOG][Proc: 0]p: generate_solver: 0.003 [ms]
[OGL LOG][Proc: 0]p: solve: 4138.52 [ms]
[OGL LOG][Proc: 0]p: copy_x_back: 9.307 [ms]
[OGL LOG][lduLduBase.H:330] 
Statistics:
	Time per iteration: 1808 [mu s]
	Time per residual norm calculation: 348.000000 [mu s]
	Time per iteration and DOF: 0.066963 [ns]
	Retrieve results bandwidth 2.901000 [GByte/s]
[OGL LOG][Proc: 0]p: solve_multi_gpu: 4159.09 [ms]
BJhipGKOCG:  Solving for p, Initial residual = 0.8421, Final residual = 8.03108e-05, No Iterations 2289
[INFO] SolveP: 4225.36 [ms]
time step continuity errors : sum local = 9.7144e-09, global = -5.00026e-22, cumulative = 1.69328e-20
[INFO] ContinuityError: 49.032 [ms]
[INFO] CorrectBoundary: 1.743 [ms]
[INFO] PISOStep: 4844.73 [ms]
[INFO] TimeStep: 12944.8 [ms]
ExecutionTime = 231.14 s  ClockTime = 191 s

Time = 0.002656

Courant Number mean: 0.0464224 max: 0.492864
[INFO] MatrixAssemblyU: 260.508 [ms]
DILUPBiCGStab:  Solving for Ux, Initial residual = 0.0156454, Final residual = 0.0012417, No Iterations 5
DILUPBiCGStab:  Solving for Uy, Initial residual = 0.0572723, Final residual = 0.00351454, No Iterations 5
DILUPBiCGStab:  Solving for Uz, Initial residual = 0.474041, Final residual = 0.0154122, No Iterations 5
[INFO] MomentumPredictor: 2964.42 [ms]
[INFO] MatrixAssemblyPI: 348.518 [ms]
[INFO] AdjustPhi: 22.664 [ms]
[INFO] ConstrainPressure: 0.004 [ms]
[INFO] MatrixAssemblyPII: 98.058 [ms]
[OGL LOG][Proc: 0]: global_index_init: 0.052 [ms]
[OGL LOG][Proc: 0]p_local_coeffs: call_update: 0 [ms]
[OGL LOG][Proc: 0]p_non_local_coeffs: call_update: 0 [ms]
[OGL LOG][Proc: 0]p: update_local_matrix_data: 74.073 [ms]
[OGL LOG][Proc: 0]p: update_non_local_matrix_data: 0.234 [ms]
[OGL LOG][Proc: 0]p_matrix: call_update: 2.13 [ms]
[OGL LOG][Proc: 0]p_rhs: call_update: 3.918 [ms]
[OGL LOG][Preconditioner.H:121] Generate preconditioner BJ MaxBlockSize 1
[OGL LOG][Proc: 0]p: init_precond: 1.105 [ms]
[OGL LOG][StoppingCriterion.H:237] Creating stopping criterion with minIter 1373 frequency 13
[OGL LOG][Proc: 0]p: generate_solver: 0.003 [ms]
[OGL LOG][Proc: 0]p: solve: 4149.46 [ms]
[OGL LOG][Proc: 0]p: copy_x_back: 9.411 [ms]
[OGL LOG][lduLduBase.H:330] 
Statistics:
	Time per iteration: 1812 [mu s]
	Time per residual norm calculation: 359.000000 [mu s]
	Time per iteration and DOF: 0.067111 [ns]
	Retrieve results bandwidth 2.868000 [GByte/s]
[OGL LOG][Proc: 0]p: solve_multi_gpu: 4175.57 [ms]
BJhipGKOCG:  Solving for p, Initial residual = 0.889481, Final residual = 8.98815e-05, No Iterations 2289
[INFO] SolveP: 4260.17 [ms]
time step continuity errors : sum local = 1.13741e-08, global = 1.56046e-21, cumulative = 1.84933e-20
[INFO] ContinuityError: 49.389 [ms]
[INFO] CorrectBoundary: 2.086 [ms]
[INFO] PISOStep: 4892.89 [ms]
[INFO] MatrixAssemblyPI: 335.179 [ms]
[INFO] AdjustPhi: 21.563 [ms]
[INFO] ConstrainPressure: 0.004 [ms]
[INFO] MatrixAssemblyPII: 97.961 [ms]
[OGL LOG][Proc: 0]: global_index_init: 0.242 [ms]
[OGL LOG][Proc: 0]p_local_coeffs: call_update: 0 [ms]
[OGL LOG][Proc: 0]p_non_local_coeffs: call_update: 0 [ms]
[OGL LOG][Proc: 0]p: update_local_matrix_data: 54.458 [ms]
[OGL LOG][Proc: 0]p: update_non_local_matrix_data: 0.227 [ms]
[OGL LOG][Proc: 0]p_matrix: call_update: 2.406 [ms]
[OGL LOG][Proc: 0]p_rhs: call_update: 3.455 [ms]
[OGL LOG][Preconditioner.H:121] Generate preconditioner BJ MaxBlockSize 1
[OGL LOG][Proc: 0]p: init_precond: 1.128 [ms]
[OGL LOG][StoppingCriterion.H:237] Creating stopping criterion with minIter 1373 frequency 13
[OGL LOG][Proc: 0]p: generate_solver: 0.003 [ms]
[OGL LOG][Proc: 0]p: solve: 4142.26 [ms]
[OGL LOG][Proc: 0]p: copy_x_back: 9.536 [ms]
[OGL LOG][lduLduBase.H:330] 
Statistics:
	Time per iteration: 1809 [mu s]
	Time per residual norm calculation: 336.000000 [mu s]
	Time per iteration and DOF: 0.067000 [ns]
	Retrieve results bandwidth 2.831000 [GByte/s]
[OGL LOG][Proc: 0]p: solve_multi_gpu: 4165.9 [ms]
BJhipGKOCG:  Solving for p, Initial residual = 0.816802, Final residual = 8.28694e-05, No Iterations 2289
[INFO] SolveP: 4231.08 [ms]
time step continuity errors : sum local = 1.05757e-08, global = -3.83109e-22, cumulative = 1.81102e-20
[INFO] ContinuityError: 49.475 [ms]
[INFO] CorrectBoundary: 5.759 [ms]
[INFO] PISOStep: 4854.2 [ms]
[INFO] TimeStep: 13017.2 [ms]
ExecutionTime = 246.99 s  ClockTime = 204 s

Time = 0.002822

Courant Number mean: 0.0475331 max: 0.551147
[INFO] MatrixAssemblyU: 259.7 [ms]
DILUPBiCGStab:  Solving for Ux, Initial residual = 0.0150639, Final residual = 0.00114891, No Iterations 5
DILUPBiCGStab:  Solving for Uy, Initial residual = 0.0586048, Final residual = 0.00355361, No Iterations 5
DILUPBiCGStab:  Solving for Uz, Initial residual = 0.485264, Final residual = 0.0154012, No Iterations 5
[INFO] MomentumPredictor: 2960.36 [ms]
[INFO] MatrixAssemblyPI: 342.528 [ms]
[INFO] AdjustPhi: 20.056 [ms]
[INFO] ConstrainPressure: 0.005 [ms]
[INFO] MatrixAssemblyPII: 98.464 [ms]
[OGL LOG][Proc: 0]: global_index_init: 0.151 [ms]
[OGL LOG][Proc: 0]p_local_coeffs: call_update: 0 [ms]
[OGL LOG][Proc: 0]p_non_local_coeffs: call_update: 0 [ms]
[OGL LOG][Proc: 0]p: update_local_matrix_data: 59.299 [ms]
[OGL LOG][Proc: 0]p: update_non_local_matrix_data: 0.235 [ms]
[OGL LOG][Proc: 0]p_matrix: call_update: 2.413 [ms]
[OGL LOG][Proc: 0]p_rhs: call_update: 2.324 [ms]
[OGL LOG][Preconditioner.H:121] Generate preconditioner BJ MaxBlockSize 1
[OGL LOG][Proc: 0]p: init_precond: 1.111 [ms]
[OGL LOG][StoppingCriterion.H:237] Creating stopping criterion with minIter 1373 frequency 13
[OGL LOG][Proc: 0]p: generate_solver: 0.003 [ms]
[OGL LOG][Proc: 0]p: solve: 4157.35 [ms]
[OGL LOG][Proc: 0]p: copy_x_back: 9.392 [ms]
[OGL LOG][lduLduBase.H:330] 
Statistics:
	Time per iteration: 1816 [mu s]
	Time per residual norm calculation: 349.000000 [mu s]
	Time per iteration and DOF: 0.067259 [ns]
	Retrieve results bandwidth 2.874000 [GByte/s]
[OGL LOG][Proc: 0]p: solve_multi_gpu: 4177.77 [ms]
BJhipGKOCG:  Solving for p, Initial residual = 0.90474, Final residual = 8.70047e-05, No Iterations 2289
[INFO] SolveP: 4247.94 [ms]
time step continuity errors : sum local = 1.11014e-08, global = 1.38106e-21, cumulative = 1.94912e-20
[INFO] ContinuityError: 48.881 [ms]
[INFO] CorrectBoundary: 1.885 [ms]
[INFO] PISOStep: 4874.28 [ms]
[INFO] MatrixAssemblyPI: 337.902 [ms]
[INFO] AdjustPhi: 21.125 [ms]
[INFO] ConstrainPressure: 0.004 [ms]
[INFO] MatrixAssemblyPII: 97.706 [ms]
[OGL LOG][Proc: 0]: global_index_init: 0.407 [ms]
[OGL LOG][Proc: 0]p_local_coeffs: call_update: 0 [ms]
[OGL LOG][Proc: 0]p_non_local_coeffs: call_update: 0 [ms]
[OGL LOG][Proc: 0]p: update_local_matrix_data: 53.763 [ms]
[OGL LOG][Proc: 0]p: update_non_local_matrix_data: 0.236 [ms]
[OGL LOG][Proc: 0]p_matrix: call_update: 2.673 [ms]
[OGL LOG][Proc: 0]p_rhs: call_update: 3.411 [ms]
[OGL LOG][Preconditioner.H:121] Generate preconditioner BJ MaxBlockSize 1
[OGL LOG][Proc: 0]p: init_precond: 1.098 [ms]
[OGL LOG][StoppingCriterion.H:237] Creating stopping criterion with minIter 1373 frequency 13
[OGL LOG][Proc: 0]p: generate_solver: 0.003 [ms]
[OGL LOG][Proc: 0]p: solve: 4175.14 [ms]
[OGL LOG][Proc: 0]p: copy_x_back: 9.31 [ms]
[OGL LOG][lduLduBase.H:330] 
Statistics:
	Time per iteration: 1824 [mu s]
	Time per residual norm calculation: 348.000000 [mu s]
	Time per iteration and DOF: 0.067556 [ns]
	Retrieve results bandwidth 2.900000 [GByte/s]
[OGL LOG][Proc: 0]p: solve_multi_gpu: 4198.46 [ms]
BJhipGKOCG:  Solving for p, Initial residual = 0.840561, Final residual = 8.13191e-05, No Iterations 2289
[INFO] SolveP: 4263.2 [ms]
time step continuity errors : sum local = 1.033e-08, global = 1.88512e-22, cumulative = 1.96797e-20
[INFO] ContinuityError: 50.61 [ms]
[INFO] CorrectBoundary: 2.557 [ms]
[INFO] PISOStep: 4885.65 [ms]
[INFO] TimeStep: 13026.5 [ms]
ExecutionTime = 262.82 s  ClockTime = 217 s

Time = 0.002988

Courant Number mean: 0.0485163 max: 0.496213
[INFO] MatrixAssemblyU: 259.163 [ms]
DILUPBiCGStab:  Solving for Ux, Initial residual = 0.0151936, Final residual = 0.00115601, No Iterations 5
DILUPBiCGStab:  Solving for Uy, Initial residual = 0.0555201, Final residual = 0.00320609, No Iterations 5
DILUPBiCGStab:  Solving for Uz, Initial residual = 0.481781, Final residual = 0.0152096, No Iterations 5
[INFO] MomentumPredictor: 2969.43 [ms]
[INFO] MatrixAssemblyPI: 342.626 [ms]
[INFO] AdjustPhi: 20.836 [ms]
[INFO] ConstrainPressure: 0.004 [ms]
[INFO] MatrixAssemblyPII: 98.306 [ms]
[OGL LOG][Proc: 0]: global_index_init: 0.13 [ms]
[OGL LOG][Proc: 0]p_local_coeffs: call_update: 0 [ms]
[OGL LOG][Proc: 0]p_non_local_coeffs: call_update: 0 [ms]
[OGL LOG][Proc: 0]p: update_local_matrix_data: 54.817 [ms]
[OGL LOG][Proc: 0]p: update_non_local_matrix_data: 0.213 [ms]
[OGL LOG][Proc: 0]p_matrix: call_update: 2.264 [ms]
[OGL LOG][Proc: 0]p_rhs: call_update: 2.969 [ms]
[OGL LOG][Preconditioner.H:121] Generate preconditioner BJ MaxBlockSize 1
[OGL LOG][Proc: 0]p: init_precond: 1.116 [ms]
[OGL LOG][StoppingCriterion.H:237] Creating stopping criterion with minIter 1373 frequency 13
[OGL LOG][Proc: 0]p: generate_solver: 0.003 [ms]
[OGL LOG][Proc: 0]p: solve: 4130.36 [ms]
[OGL LOG][Proc: 0]p: copy_x_back: 9.193 [ms]
[OGL LOG][lduLduBase.H:330] 
Statistics:
	Time per iteration: 1804 [mu s]
	Time per residual norm calculation: 311.000000 [mu s]
	Time per iteration and DOF: 0.066815 [ns]
	Retrieve results bandwidth 2.937000 [GByte/s]
[OGL LOG][Proc: 0]p: solve_multi_gpu: 4153.25 [ms]
BJhipGKOCG:  Solving for p, Initial residual = 0.894212, Final residual = 9.07646e-05, No Iterations 2289
[INFO] SolveP: 4219.48 [ms]
time step continuity errors : sum local = 1.20446e-08, global = 4.74344e-22, cumulative = 2.01541e-20
[INFO] ContinuityError: 55.318 [ms]
[INFO] CorrectBoundary: 2.403 [ms]
[INFO] PISOStep: 4850.99 [ms]
[INFO] MatrixAssemblyPI: 336.849 [ms]
[INFO] AdjustPhi: 21.868 [ms]
[INFO] ConstrainPressure: 0.005 [ms]
[INFO] MatrixAssemblyPII: 98.834 [ms]
[OGL LOG][Proc: 0]: global_index_init: 0.122 [ms]
[OGL LOG][Proc: 0]p_local_coeffs: call_update: 0 [ms]
[OGL LOG][Proc: 0]p_non_local_coeffs: call_update: 0 [ms]
[OGL LOG][Proc: 0]p: update_local_matrix_data: 63.1 [ms]
[OGL LOG][Proc: 0]p: update_non_local_matrix_data: 0.239 [ms]
[OGL LOG][Proc: 0]p_matrix: call_update: 2.194 [ms]
[OGL LOG][Proc: 0]p_rhs: call_update: 4.486 [ms]
[OGL LOG][Preconditioner.H:121] Generate preconditioner BJ MaxBlockSize 1
[OGL LOG][Proc: 0]p: init_precond: 1.103 [ms]
[OGL LOG][StoppingCriterion.H:237] Creating stopping criterion with minIter 1373 frequency 13
[OGL LOG][Proc: 0]p: generate_solver: 0.003 [ms]
[OGL LOG][Proc: 0]p: solve: 4137.34 [ms]
[OGL LOG][Proc: 0]p: copy_x_back: 9.37 [ms]
[OGL LOG][lduLduBase.H:330] 
Statistics:
	Time per iteration: 1807 [mu s]
	Time per residual norm calculation: 310.000000 [mu s]
	Time per iteration and DOF: 0.066926 [ns]
	Retrieve results bandwidth 2.881000 [GByte/s]
[OGL LOG][Proc: 0]p: solve_multi_gpu: 4163.05 [ms]
BJhipGKOCG:  Solving for p, Initial residual = 0.820091, Final residual = 8.37793e-05, No Iterations 2289
[INFO] SolveP: 4236.7 [ms]
time step continuity errors : sum local = 1.11996e-08, global = 1.57982e-22, cumulative = 2.03121e-20
[INFO] ContinuityError: 51.467 [ms]
[INFO] CorrectBoundary: 1.852 [ms]
[INFO] PISOStep: 4859.01 [ms]
[INFO] TimeStep: 12983.1 [ms]
ExecutionTime = 278.64 s  ClockTime = 230 s

Time = 0.003154

Courant Number mean: 0.0495292 max: 0.562889
[INFO] MatrixAssemblyU: 260.88 [ms]
DILUPBiCGStab:  Solving for Ux, Initial residual = 0.0147859, Final residual = 0.00107209, No Iterations 5
DILUPBiCGStab:  Solving for Uy, Initial residual = 0.0571289, Final residual = 0.00327067, No Iterations 5
DILUPBiCGStab:  Solving for Uz, Initial residual = 0.49337, Final residual = 0.0152598, No Iterations 5
[INFO] MomentumPredictor: 2958.41 [ms]
[INFO] MatrixAssemblyPI: 342.501 [ms]
[INFO] AdjustPhi: 20.804 [ms]
[INFO] ConstrainPressure: 0.004 [ms]
[INFO] MatrixAssemblyPII: 98.3 [ms]
[OGL LOG][Proc: 0]: global_index_init: 0.109 [ms]
[OGL LOG][Proc: 0]p_local_coeffs: call_update: 0 [ms]
[OGL LOG][Proc: 0]p_non_local_coeffs: call_update: 0 [ms]
[OGL LOG][Proc: 0]p: update_local_matrix_data: 55.738 [ms]
[OGL LOG][Proc: 0]p: update_non_local_matrix_data: 0.234 [ms]
[OGL LOG][Proc: 0]p_matrix: call_update: 2.255 [ms]
[OGL LOG][Proc: 0]p_rhs: call_update: 2.68 [ms]
[OGL LOG][Preconditioner.H:121] Generate preconditioner BJ MaxBlockSize 1
[OGL LOG][Proc: 0]p: init_precond: 1.153 [ms]
[OGL LOG][StoppingCriterion.H:237] Creating stopping criterion with minIter 1373 frequency 13
[OGL LOG][Proc: 0]p: generate_solver: 0.003 [ms]
[OGL LOG][Proc: 0]p: solve: 4128.1 [ms]
[OGL LOG][Proc: 0]p: copy_x_back: 9.299 [ms]
[OGL LOG][lduLduBase.H:330] 
Statistics:
	Time per iteration: 1803 [mu s]
	Time per residual norm calculation: 350.000000 [mu s]
	Time per iteration and DOF: 0.066778 [ns]
	Retrieve results bandwidth 2.903000 [GByte/s]
[OGL LOG][Proc: 0]p: solve_multi_gpu: 4149.48 [ms]
BJhipGKOCG:  Solving for p, Initial residual = 0.90748, Final residual = 8.93682e-05, No Iterations 2289
[INFO] SolveP: 4215.69 [ms]
time step continuity errors : sum local = 1.20229e-08, global = -4.78446e-24, cumulative = 2.03073e-20
[INFO] ContinuityError: 50.328 [ms]
[INFO] CorrectBoundary: 1.025 [ms]
[INFO] PISOStep: 4841.22 [ms]
[INFO] MatrixAssemblyPI: 337.318 [ms]
[INFO] AdjustPhi: 21.613 [ms]
[INFO] ConstrainPressure: 0.004 [ms]
[INFO] MatrixAssemblyPII: 97.848 [ms]
[OGL LOG][Proc: 0]: global_index_init: 4.073 [ms]
[OGL LOG][Proc: 0]p_local_coeffs: call_update: 0 [ms]
[OGL LOG][Proc: 0]p_non_local_coeffs: call_update: 0 [ms]
[OGL LOG][Proc: 0]p: update_local_matrix_data: 55.265 [ms]
[OGL LOG][Proc: 0]p: update_non_local_matrix_data: 0.241 [ms]
[OGL LOG][Proc: 0]p_matrix: call_update: 2.068 [ms]
[OGL LOG][Proc: 0]p_rhs: call_update: 4.717 [ms]
[OGL LOG][Preconditioner.H:121] Generate preconditioner BJ MaxBlockSize 1
[OGL LOG][Proc: 0]p: init_precond: 1.11 [ms]
[OGL LOG][StoppingCriterion.H:237] Creating stopping criterion with minIter 1373 frequency 13
[OGL LOG][Proc: 0]p: generate_solver: 0.002 [ms]
[OGL LOG][Proc: 0]p: solve: 4163.87 [ms]
[OGL LOG][Proc: 0]p: copy_x_back: 9.391 [ms]
[OGL LOG][lduLduBase.H:330] 
Statistics:
	Time per iteration: 1819 [mu s]
	Time per residual norm calculation: 345.000000 [mu s]
	Time per iteration and DOF: 0.067370 [ns]
	Retrieve results bandwidth 2.875000 [GByte/s]
[OGL LOG][Proc: 0]p: solve_multi_gpu: 4195.71 [ms]
BJhipGKOCG:  Solving for p, Initial residual = 0.840473, Final residual = 8.34089e-05, No Iterations 2289
[INFO] SolveP: 4267.95 [ms]
time step continuity errors : sum local = 1.11838e-08, global = 9.06843e-22, cumulative = 2.12141e-20
[INFO] ContinuityError: 49.576 [ms]
[INFO] CorrectBoundary: 0.935 [ms]
[INFO] PISOStep: 4888.12 [ms]
[INFO] TimeStep: 12995.7 [ms]
ExecutionTime = 294.46 s  ClockTime = 243 s

Time = 0.00332

Courant Number mean: 0.050419 max: 0.499823
[INFO] MatrixAssemblyU: 261.285 [ms]
DILUPBiCGStab:  Solving for Ux, Initial residual = 0.0150189, Final residual = 0.00108516, No Iterations 5
DILUPBiCGStab:  Solving for Uy, Initial residual = 0.054818, Final residual = 0.00297771, No Iterations 5
DILUPBiCGStab:  Solving for Uz, Initial residual = 0.491751, Final residual = 0.0151498, No Iterations 5
[INFO] MomentumPredictor: 2961.34 [ms]
[INFO] MatrixAssemblyPI: 343.234 [ms]
[INFO] AdjustPhi: 20.138 [ms]
[INFO] ConstrainPressure: 0.004 [ms]
[INFO] MatrixAssemblyPII: 98.529 [ms]
[OGL LOG][Proc: 0]: global_index_init: 0.034 [ms]
[OGL LOG][Proc: 0]p_local_coeffs: call_update: 0 [ms]
[OGL LOG][Proc: 0]p_non_local_coeffs: call_update: 0 [ms]
[OGL LOG][Proc: 0]p: update_local_matrix_data: 55.48 [ms]
[OGL LOG][Proc: 0]p: update_non_local_matrix_data: 0.241 [ms]
[OGL LOG][Proc: 0]p_matrix: call_update: 2.324 [ms]
[OGL LOG][Proc: 0]p_rhs: call_update: 3.23 [ms]
[OGL LOG][Preconditioner.H:121] Generate preconditioner BJ MaxBlockSize 1
[OGL LOG][Proc: 0]p: init_precond: 1.167 [ms]
[OGL LOG][StoppingCriterion.H:237] Creating stopping criterion with minIter 1373 frequency 13
[OGL LOG][Proc: 0]p: generate_solver: 0.003 [ms]
[OGL LOG][Proc: 0]p: solve: 4140.96 [ms]
[OGL LOG][Proc: 0]p: copy_x_back: 9.327 [ms]
[OGL LOG][lduLduBase.H:330] 
Statistics:
	Time per iteration: 1809 [mu s]
	Time per residual norm calculation: 330.000000 [mu s]
	Time per iteration and DOF: 0.067000 [ns]
	Retrieve results bandwidth 2.894000 [GByte/s]
[OGL LOG][Proc: 0]p: solve_multi_gpu: 4164.26 [ms]
BJhipGKOCG:  Solving for p, Initial residual = 0.899793, Final residual = 9.23362e-05, No Iterations 2289
[INFO] SolveP: 4230.42 [ms]
time step continuity errors : sum local = 1.29099e-08, global = -1.06672e-21, cumulative = 2.01474e-20
[INFO] ContinuityError: 49.259 [ms]
[INFO] CorrectBoundary: 1.505 [ms]
[INFO] PISOStep: 4854.2 [ms]
[INFO] MatrixAssemblyPI: 339.932 [ms]
[INFO] AdjustPhi: 21.229 [ms]
[INFO] ConstrainPressure: 0.005 [ms]
[INFO] MatrixAssemblyPII: 99.124 [ms]
[OGL LOG][Proc: 0]: global_index_init: 0.09 [ms]
[OGL LOG][Proc: 0]p_local_coeffs: call_update: 0 [ms]
[OGL LOG][Proc: 0]p_non_local_coeffs: call_update: 0 [ms]
[OGL LOG][Proc: 0]p: update_local_matrix_data: 55.365 [ms]
[OGL LOG][Proc: 0]p: update_non_local_matrix_data: 0.229 [ms]
[OGL LOG][Proc: 0]p_matrix: call_update: 2.223 [ms]
[OGL LOG][Proc: 0]p_rhs: call_update: 3.121 [ms]
[OGL LOG][Preconditioner.H:121] Generate preconditioner BJ MaxBlockSize 1
[OGL LOG][Proc: 0]p: init_precond: 1.166 [ms]
[OGL LOG][StoppingCriterion.H:237] Creating stopping criterion with minIter 1373 frequency 13
[OGL LOG][Proc: 0]p: generate_solver: 0.003 [ms]
[OGL LOG][Proc: 0]p: solve: 4186.42 [ms]
[OGL LOG][Proc: 0]p: copy_x_back: 9.531 [ms]
[OGL LOG][lduLduBase.H:330] 
Statistics:
	Time per iteration: 1828 [mu s]
	Time per residual norm calculation: 355.000000 [mu s]
	Time per iteration and DOF: 0.067704 [ns]
	Retrieve results bandwidth 2.832000 [GByte/s]
[OGL LOG][Proc: 0]p: solve_multi_gpu: 4207.78 [ms]
BJhipGKOCG:  Solving for p, Initial residual = 0.824739, Final residual = 8.53702e-05, No Iterations 2289
[INFO] SolveP: 4273.81 [ms]
time step continuity errors : sum local = 1.20129e-08, global = 1.69323e-22, cumulative = 2.03167e-20
[INFO] ContinuityError: 53.175 [ms]
[INFO] CorrectBoundary: 1.82 [ms]
[INFO] PISOStep: 4901.32 [ms]
[INFO] TimeStep: 13023.9 [ms]
ExecutionTime = 310.31 s  ClockTime = 256 s

End

Finalising parallel run
