/*---------------------------------------------------------------------------*\
| =========                 |                                                 |
| \\      /  F ield         | OpenFOAM: The Open Source CFD Toolbox           |
|  \\    /   O peration     | Version:  2212                                  |
|   \\  /    A nd           | Website:  www.openfoam.com                      |
|    \\/     M anipulation  |                                                 |
\*---------------------------------------------------------------------------*/
Build  : 5614a571f2-20230228 OPENFOAM=2212 patch=230110 version=v2212
Arch   : "LSB;label=32;scalar=64"
Exec   : decomposePar -force
Date   : Jul 03 2023
Time   : 07:13:08
Host   : guyot
PID    : 2703279
--> FOAM Warning : 
    From Foam::fileName Foam::cwd_L()
    in file POSIX.C at line 505
    PWD is not the cwd() - reverting to physical description
I/O    : uncollated
--> FOAM Warning : 
    From Foam::fileName Foam::cwd_L()
    in file POSIX.C at line 505
    PWD is not the cwd() - reverting to physical description
Case   : /home/greole/data/code/exasim-project/micro_benchmarks/LidDrivenCavity3D/workspace/870b76ca99df18bf773b85b21e504cef/case
nProcs : 1
trapFpe: Floating point exception trapping enabled (FOAM_SIGFPE).
fileModificationChecking : Monitoring run-time modified files using timeStampMaster (fileModificationSkew 5, maxFileModificationPolls 20)
allowSystemOperations : Allowing user-supplied system call operations

// * * * * * * * * * * * * * * * * * * * * * * * * * * * * * * * * * * * * * //
Create time

--> FOAM Warning : 
    From void* Foam::dlLibraryTable::openLibrary(const Foam::fileName&, bool)
    in file db/dynamicLibrary/dlLibraryTable/dlLibraryTable.C at line 188
    Could not load "libpetscFoam.so"
libpetscFoam.so: cannot open shared object file: No such file or directory


Decomposing mesh

Create mesh

Calculating distribution of cells
Decomposition method simple [64] (region region0)

Finished decomposition in 0.57 s

Calculating original mesh data

Distributing cells to processors

Distributing faces to processors

Distributing points to processors

Constructing processor meshes
--> FOAM Warning : 
    From void* Foam::dlLibraryTable::openLibrary(const Foam::fileName&, bool)
    in file db/dynamicLibrary/dlLibraryTable/dlLibraryTable.C at line 188
    Could not load "libpetscFoam.so"
libpetscFoam.so: cannot open shared object file: No such file or directory

Processor 0
    Number of cells = 16250
    Number of points = 18564
    Number of faces shared with processor 1 = 1250
    Number of faces shared with processor 8 = 650
    Number of faces shared with processor 32 = 325
    Number of processor patches = 3
    Number of processor faces = 2225
    Number of boundary faces = 2225
--> FOAM Warning : 
    From void* Foam::dlLibraryTable::openLibrary(const Foam::fileName&, bool)
    in file db/dynamicLibrary/dlLibraryTable/dlLibraryTable.C at line 188
    Could not load "libpetscFoam.so"
libpetscFoam.so: cannot open shared object file: No such file or directory

Processor 1
    Number of cells = 15000
    Number of points = 17238
    Number of faces shared with processor 0 = 1250
    Number of faces shared with processor 2 = 1250
    Number of faces shared with processor 9 = 600
    Number of faces shared with processor 33 = 300
    Number of processor patches = 4
    Number of processor faces = 3400
    Number of boundary faces = 900
--> FOAM Warning : 
    From void* Foam::dlLibraryTable::openLibrary(const Foam::fileName&, bool)
    in file db/dynamicLibrary/dlLibraryTable/dlLibraryTable.C at line 188
    Could not load "libpetscFoam.so"
libpetscFoam.so: cannot open shared object file: No such file or directory

Processor 2
    Number of cells = 16250
    Number of points = 18564
    Number of faces shared with processor 1 = 1250
    Number of faces shared with processor 3 = 1250
    Number of faces shared with processor 10 = 650
    Number of faces shared with processor 34 = 325
    Number of processor patches = 4
    Number of processor faces = 3475
    Number of boundary faces = 975
--> FOAM Warning : 
    From void* Foam::dlLibraryTable::openLibrary(const Foam::fileName&, bool)
    in file db/dynamicLibrary/dlLibraryTable/dlLibraryTable.C at line 188
    Could not load "libpetscFoam.so"
libpetscFoam.so: cannot open shared object file: No such file or directory

Processor 3
    Number of cells = 15000
    Number of points = 17238
    Number of faces shared with processor 2 = 1250
    Number of faces shared with processor 4 = 1250
    Number of faces shared with processor 11 = 600
    Number of faces shared with processor 35 = 300
    Number of processor patches = 4
    Number of processor faces = 3400
    Number of boundary faces = 900
--> FOAM Warning : 
    From void* Foam::dlLibraryTable::openLibrary(const Foam::fileName&, bool)
    in file db/dynamicLibrary/dlLibraryTable/dlLibraryTable.C at line 188
    Could not load "libpetscFoam.so"
libpetscFoam.so: cannot open shared object file: No such file or directory

Processor 4
    Number of cells = 16250
    Number of points = 18564
    Number of faces shared with processor 3 = 1250
    Number of faces shared with processor 5 = 1250
    Number of faces shared with processor 12 = 650
    Number of faces shared with processor 36 = 325
    Number of processor patches = 4
    Number of processor faces = 3475
    Number of boundary faces = 975
--> FOAM Warning : 
    From void* Foam::dlLibraryTable::openLibrary(const Foam::fileName&, bool)
    in file db/dynamicLibrary/dlLibraryTable/dlLibraryTable.C at line 188
    Could not load "libpetscFoam.so"
libpetscFoam.so: cannot open shared object file: No such file or directory

Processor 5
    Number of cells = 15000
    Number of points = 17238
    Number of faces shared with processor 4 = 1250
    Number of faces shared with processor 6 = 1250
    Number of faces shared with processor 13 = 600
    Number of faces shared with processor 37 = 300
    Number of processor patches = 4
    Number of processor faces = 3400
    Number of boundary faces = 900
--> FOAM Warning : 
    From void* Foam::dlLibraryTable::openLibrary(const Foam::fileName&, bool)
    in file db/dynamicLibrary/dlLibraryTable/dlLibraryTable.C at line 188
    Could not load "libpetscFoam.so"
libpetscFoam.so: cannot open shared object file: No such file or directory

Processor 6
    Number of cells = 16250
    Number of points = 18564
    Number of faces shared with processor 5 = 1250
    Number of faces shared with processor 7 = 1250
    Number of faces shared with processor 14 = 650
    Number of faces shared with processor 38 = 325
    Number of processor patches = 4
    Number of processor faces = 3475
    Number of boundary faces = 975
--> FOAM Warning : 
    From void* Foam::dlLibraryTable::openLibrary(const Foam::fileName&, bool)
    in file db/dynamicLibrary/dlLibraryTable/dlLibraryTable.C at line 188
    Could not load "libpetscFoam.so"
libpetscFoam.so: cannot open shared object file: No such file or directory

Processor 7
    Number of cells = 15000
    Number of points = 17238
    Number of faces shared with processor 6 = 1250
    Number of faces shared with processor 15 = 600
    Number of faces shared with processor 39 = 300
    Number of processor patches = 3
    Number of processor faces = 2150
    Number of boundary faces = 2150
--> FOAM Warning : 
    From void* Foam::dlLibraryTable::openLibrary(const Foam::fileName&, bool)
    in file db/dynamicLibrary/dlLibraryTable/dlLibraryTable.C at line 188
    Could not load "libpetscFoam.so"
libpetscFoam.so: cannot open shared object file: No such file or directory

Processor 8
    Number of cells = 16250
    Number of points = 18564
    Number of faces shared with processor 0 = 650
    Number of faces shared with processor 9 = 1250
    Number of faces shared with processor 16 = 650
    Number of faces shared with processor 40 = 324
    Number of faces shared with processor 41 = 1
    Number of processor patches = 5
    Number of processor faces = 2875
    Number of boundary faces = 1575
--> FOAM Warning : 
    From void* Foam::dlLibraryTable::openLibrary(const Foam::fileName&, bool)
    in file db/dynamicLibrary/dlLibraryTable/dlLibraryTable.C at line 188
    Could not load "libpetscFoam.so"
libpetscFoam.so: cannot open shared object file: No such file or directory

Processor 9
    Number of cells = 15000
    Number of points = 17238
    Number of faces shared with processor 1 = 600
    Number of faces shared with processor 8 = 1250
    Number of faces shared with processor 10 = 1250
    Number of faces shared with processor 17 = 600
    Number of faces shared with processor 41 = 300
    Number of processor patches = 5
    Number of processor faces = 4000
    Number of boundary faces = 300
--> FOAM Warning : 
    From void* Foam::dlLibraryTable::openLibrary(const Foam::fileName&, bool)
    in file db/dynamicLibrary/dlLibraryTable/dlLibraryTable.C at line 188
    Could not load "libpetscFoam.so"
libpetscFoam.so: cannot open shared object file: No such file or directory

Processor 10
    Number of cells = 16250
    Number of points = 18564
    Number of faces shared with processor 2 = 650
    Number of faces shared with processor 9 = 1250
    Number of faces shared with processor 11 = 1250
    Number of faces shared with processor 18 = 650
    Number of faces shared with processor 42 = 324
    Number of faces shared with processor 43 = 1
    Number of processor patches = 6
    Number of processor faces = 4125
    Number of boundary faces = 325
--> FOAM Warning : 
    From void* Foam::dlLibraryTable::openLibrary(const Foam::fileName&, bool)
    in file db/dynamicLibrary/dlLibraryTable/dlLibraryTable.C at line 188
    Could not load "libpetscFoam.so"
libpetscFoam.so: cannot open shared object file: No such file or directory

Processor 11
    Number of cells = 15000
    Number of points = 17238
    Number of faces shared with processor 3 = 600
    Number of faces shared with processor 10 = 1250
    Number of faces shared with processor 12 = 1250
    Number of faces shared with processor 19 = 600
    Number of faces shared with processor 43 = 300
    Number of processor patches = 5
    Number of processor faces = 4000
    Number of boundary faces = 300
--> FOAM Warning : 
    From void* Foam::dlLibraryTable::openLibrary(const Foam::fileName&, bool)
    in file db/dynamicLibrary/dlLibraryTable/dlLibraryTable.C at line 188
    Could not load "libpetscFoam.so"
libpetscFoam.so: cannot open shared object file: No such file or directory

Processor 12
    Number of cells = 16250
    Number of points = 18564
    Number of faces shared with processor 4 = 650
    Number of faces shared with processor 11 = 1250
    Number of faces shared with processor 13 = 1250
    Number of faces shared with processor 20 = 650
    Number of faces shared with processor 44 = 324
    Number of faces shared with processor 45 = 1
    Number of processor patches = 6
    Number of processor faces = 4125
    Number of boundary faces = 325
--> FOAM Warning : 
    From void* Foam::dlLibraryTable::openLibrary(const Foam::fileName&, bool)
    in file db/dynamicLibrary/dlLibraryTable/dlLibraryTable.C at line 188
    Could not load "libpetscFoam.so"
libpetscFoam.so: cannot open shared object file: No such file or directory

Processor 13
    Number of cells = 15000
    Number of points = 17238
    Number of faces shared with processor 5 = 600
    Number of faces shared with processor 12 = 1250
    Number of faces shared with processor 14 = 1250
    Number of faces shared with processor 21 = 600
    Number of faces shared with processor 45 = 300
    Number of processor patches = 5
    Number of processor faces = 4000
    Number of boundary faces = 300
--> FOAM Warning : 
    From void* Foam::dlLibraryTable::openLibrary(const Foam::fileName&, bool)
    in file db/dynamicLibrary/dlLibraryTable/dlLibraryTable.C at line 188
    Could not load "libpetscFoam.so"
libpetscFoam.so: cannot open shared object file: No such file or directory

Processor 14
    Number of cells = 16250
    Number of points = 18564
    Number of faces shared with processor 6 = 650
    Number of faces shared with processor 13 = 1250
    Number of faces shared with processor 15 = 1250
    Number of faces shared with processor 22 = 650
    Number of faces shared with processor 46 = 324
    Number of faces shared with processor 47 = 1
    Number of processor patches = 6
    Number of processor faces = 4125
    Number of boundary faces = 325
--> FOAM Warning : 
    From void* Foam::dlLibraryTable::openLibrary(const Foam::fileName&, bool)
    in file db/dynamicLibrary/dlLibraryTable/dlLibraryTable.C at line 188
    Could not load "libpetscFoam.so"
libpetscFoam.so: cannot open shared object file: No such file or directory

Processor 15
    Number of cells = 15000
    Number of points = 17238
    Number of faces shared with processor 7 = 600
    Number of faces shared with processor 14 = 1250
    Number of faces shared with processor 23 = 600
    Number of faces shared with processor 47 = 300
    Number of processor patches = 4
    Number of processor faces = 2750
    Number of boundary faces = 1550
--> FOAM Warning : 
    From void* Foam::dlLibraryTable::openLibrary(const Foam::fileName&, bool)
    in file db/dynamicLibrary/dlLibraryTable/dlLibraryTable.C at line 188
    Could not load "libpetscFoam.so"
libpetscFoam.so: cannot open shared object file: No such file or directory

Processor 16
    Number of cells = 15950
    Number of points = 18264
    Number of faces shared with processor 8 = 650
    Number of faces shared with processor 17 = 1298
    Number of faces shared with processor 24 = 625
    Number of faces shared with processor 25 = 1
    Number of faces shared with processor 48 = 300
    Number of faces shared with processor 49 = 1
    Number of processor patches = 6
    Number of processor faces = 2875
    Number of boundary faces = 1575
--> FOAM Warning : 
    From void* Foam::dlLibraryTable::openLibrary(const Foam::fileName&, bool)
    in file db/dynamicLibrary/dlLibraryTable/dlLibraryTable.C at line 188
    Could not load "libpetscFoam.so"
libpetscFoam.so: cannot open shared object file: No such file or directory

Processor 17
    Number of cells = 15300
    Number of points = 17587
    Number of faces shared with processor 9 = 600
    Number of faces shared with processor 16 = 1298
    Number of faces shared with processor 18 = 1250
    Number of faces shared with processor 25 = 624
    Number of faces shared with processor 49 = 324
    Number of processor patches = 5
    Number of processor faces = 4096
    Number of boundary faces = 300
--> FOAM Warning : 
    From void* Foam::dlLibraryTable::openLibrary(const Foam::fileName&, bool)
    in file db/dynamicLibrary/dlLibraryTable/dlLibraryTable.C at line 188
    Could not load "libpetscFoam.so"
libpetscFoam.so: cannot open shared object file: No such file or directory

Processor 18
    Number of cells = 15950
    Number of points = 18264
    Number of faces shared with processor 10 = 650
    Number of faces shared with processor 17 = 1250
    Number of faces shared with processor 19 = 1298
    Number of faces shared with processor 26 = 625
    Number of faces shared with processor 27 = 1
    Number of faces shared with processor 50 = 300
    Number of faces shared with processor 51 = 1
    Number of processor patches = 7
    Number of processor faces = 4125
    Number of boundary faces = 325
--> FOAM Warning : 
    From void* Foam::dlLibraryTable::openLibrary(const Foam::fileName&, bool)
    in file db/dynamicLibrary/dlLibraryTable/dlLibraryTable.C at line 188
    Could not load "libpetscFoam.so"
libpetscFoam.so: cannot open shared object file: No such file or directory

Processor 19
    Number of cells = 15300
    Number of points = 17587
    Number of faces shared with processor 11 = 600
    Number of faces shared with processor 18 = 1298
    Number of faces shared with processor 20 = 1250
    Number of faces shared with processor 27 = 624
    Number of faces shared with processor 51 = 324
    Number of processor patches = 5
    Number of processor faces = 4096
    Number of boundary faces = 300
--> FOAM Warning : 
    From void* Foam::dlLibraryTable::openLibrary(const Foam::fileName&, bool)
    in file db/dynamicLibrary/dlLibraryTable/dlLibraryTable.C at line 188
    Could not load "libpetscFoam.so"
libpetscFoam.so: cannot open shared object file: No such file or directory

Processor 20
    Number of cells = 15950
    Number of points = 18264
    Number of faces shared with processor 12 = 650
    Number of faces shared with processor 19 = 1250
    Number of faces shared with processor 21 = 1298
    Number of faces shared with processor 28 = 625
    Number of faces shared with processor 29 = 1
    Number of faces shared with processor 52 = 300
    Number of faces shared with processor 53 = 1
    Number of processor patches = 7
    Number of processor faces = 4125
    Number of boundary faces = 325
--> FOAM Warning : 
    From void* Foam::dlLibraryTable::openLibrary(const Foam::fileName&, bool)
    in file db/dynamicLibrary/dlLibraryTable/dlLibraryTable.C at line 188
    Could not load "libpetscFoam.so"
libpetscFoam.so: cannot open shared object file: No such file or directory

Processor 21
    Number of cells = 15300
    Number of points = 17587
    Number of faces shared with processor 13 = 600
    Number of faces shared with processor 20 = 1298
    Number of faces shared with processor 22 = 1250
    Number of faces shared with processor 29 = 624
    Number of faces shared with processor 53 = 324
    Number of processor patches = 5
    Number of processor faces = 4096
    Number of boundary faces = 300
--> FOAM Warning : 
    From void* Foam::dlLibraryTable::openLibrary(const Foam::fileName&, bool)
    in file db/dynamicLibrary/dlLibraryTable/dlLibraryTable.C at line 188
    Could not load "libpetscFoam.so"
libpetscFoam.so: cannot open shared object file: No such file or directory

Processor 22
    Number of cells = 15950
    Number of points = 18264
    Number of faces shared with processor 14 = 650
    Number of faces shared with processor 21 = 1250
    Number of faces shared with processor 23 = 1298
    Number of faces shared with processor 30 = 625
    Number of faces shared with processor 31 = 1
    Number of faces shared with processor 54 = 300
    Number of faces shared with processor 55 = 1
    Number of processor patches = 7
    Number of processor faces = 4125
    Number of boundary faces = 325
--> FOAM Warning : 
    From void* Foam::dlLibraryTable::openLibrary(const Foam::fileName&, bool)
    in file db/dynamicLibrary/dlLibraryTable/dlLibraryTable.C at line 188
    Could not load "libpetscFoam.so"
libpetscFoam.so: cannot open shared object file: No such file or directory

Processor 23
    Number of cells = 15300
    Number of points = 17587
    Number of faces shared with processor 15 = 600
    Number of faces shared with processor 22 = 1298
    Number of faces shared with processor 31 = 624
    Number of faces shared with processor 55 = 324
    Number of processor patches = 4
    Number of processor faces = 2846
    Number of boundary faces = 1550
--> FOAM Warning : 
    From void* Foam::dlLibraryTable::openLibrary(const Foam::fileName&, bool)
    in file db/dynamicLibrary/dlLibraryTable/dlLibraryTable.C at line 188
    Could not load "libpetscFoam.so"
libpetscFoam.so: cannot open shared object file: No such file or directory

Processor 24
    Number of cells = 15325
    Number of points = 17614
    Number of faces shared with processor 16 = 625
    Number of faces shared with processor 25 = 1299
    Number of faces shared with processor 56 = 300
    Number of processor patches = 3
    Number of processor faces = 2224
    Number of boundary faces = 2176
--> FOAM Warning : 
    From void* Foam::dlLibraryTable::openLibrary(const Foam::fileName&, bool)
    in file db/dynamicLibrary/dlLibraryTable/dlLibraryTable.C at line 188
    Could not load "libpetscFoam.so"
libpetscFoam.so: cannot open shared object file: No such file or directory

Processor 25
    Number of cells = 15925
    Number of points = 18238
    Number of faces shared with processor 16 = 1
    Number of faces shared with processor 17 = 624
    Number of faces shared with processor 24 = 1299
    Number of faces shared with processor 26 = 1250
    Number of faces shared with processor 57 = 325
    Number of processor patches = 5
    Number of processor faces = 3499
    Number of boundary faces = 949
--> FOAM Warning : 
    From void* Foam::dlLibraryTable::openLibrary(const Foam::fileName&, bool)
    in file db/dynamicLibrary/dlLibraryTable/dlLibraryTable.C at line 188
    Could not load "libpetscFoam.so"
libpetscFoam.so: cannot open shared object file: No such file or directory

Processor 26
    Number of cells = 15325
    Number of points = 17614
    Number of faces shared with processor 18 = 625
    Number of faces shared with processor 25 = 1250
    Number of faces shared with processor 27 = 1299
    Number of faces shared with processor 58 = 300
    Number of processor patches = 4
    Number of processor faces = 3474
    Number of boundary faces = 926
--> FOAM Warning : 
    From void* Foam::dlLibraryTable::openLibrary(const Foam::fileName&, bool)
    in file db/dynamicLibrary/dlLibraryTable/dlLibraryTable.C at line 188
    Could not load "libpetscFoam.so"
libpetscFoam.so: cannot open shared object file: No such file or directory

Processor 27
    Number of cells = 15925
    Number of points = 18238
    Number of faces shared with processor 18 = 1
    Number of faces shared with processor 19 = 624
    Number of faces shared with processor 26 = 1299
    Number of faces shared with processor 28 = 1250
    Number of faces shared with processor 59 = 325
    Number of processor patches = 5
    Number of processor faces = 3499
    Number of boundary faces = 949
--> FOAM Warning : 
    From void* Foam::dlLibraryTable::openLibrary(const Foam::fileName&, bool)
    in file db/dynamicLibrary/dlLibraryTable/dlLibraryTable.C at line 188
    Could not load "libpetscFoam.so"
libpetscFoam.so: cannot open shared object file: No such file or directory

Processor 28
    Number of cells = 15325
    Number of points = 17614
    Number of faces shared with processor 20 = 625
    Number of faces shared with processor 27 = 1250
    Number of faces shared with processor 29 = 1299
    Number of faces shared with processor 60 = 300
    Number of processor patches = 4
    Number of processor faces = 3474
    Number of boundary faces = 926
--> FOAM Warning : 
    From void* Foam::dlLibraryTable::openLibrary(const Foam::fileName&, bool)
    in file db/dynamicLibrary/dlLibraryTable/dlLibraryTable.C at line 188
    Could not load "libpetscFoam.so"
libpetscFoam.so: cannot open shared object file: No such file or directory

Processor 29
    Number of cells = 15925
    Number of points = 18238
    Number of faces shared with processor 20 = 1
    Number of faces shared with processor 21 = 624
    Number of faces shared with processor 28 = 1299
    Number of faces shared with processor 30 = 1250
    Number of faces shared with processor 61 = 325
    Number of processor patches = 5
    Number of processor faces = 3499
    Number of boundary faces = 949
--> FOAM Warning : 
    From void* Foam::dlLibraryTable::openLibrary(const Foam::fileName&, bool)
    in file db/dynamicLibrary/dlLibraryTable/dlLibraryTable.C at line 188
    Could not load "libpetscFoam.so"
libpetscFoam.so: cannot open shared object file: No such file or directory

Processor 30
    Number of cells = 15325
    Number of points = 17614
    Number of faces shared with processor 22 = 625
    Number of faces shared with processor 29 = 1250
    Number of faces shared with processor 31 = 1299
    Number of faces shared with processor 62 = 300
    Number of processor patches = 4
    Number of processor faces = 3474
    Number of boundary faces = 926
--> FOAM Warning : 
    From void* Foam::dlLibraryTable::openLibrary(const Foam::fileName&, bool)
    in file db/dynamicLibrary/dlLibraryTable/dlLibraryTable.C at line 188
    Could not load "libpetscFoam.so"
libpetscFoam.so: cannot open shared object file: No such file or directory

Processor 31
    Number of cells = 15925
    Number of points = 18238
    Number of faces shared with processor 22 = 1
    Number of faces shared with processor 23 = 624
    Number of faces shared with processor 30 = 1299
    Number of faces shared with processor 63 = 325
    Number of processor patches = 4
    Number of processor faces = 2249
    Number of boundary faces = 2199
--> FOAM Warning : 
    From void* Foam::dlLibraryTable::openLibrary(const Foam::fileName&, bool)
    in file db/dynamicLibrary/dlLibraryTable/dlLibraryTable.C at line 188
    Could not load "libpetscFoam.so"
libpetscFoam.so: cannot open shared object file: No such file or directory

Processor 32
    Number of cells = 15925
    Number of points = 18238
    Number of faces shared with processor 0 = 325
    Number of faces shared with processor 33 = 1299
    Number of faces shared with processor 40 = 624
    Number of faces shared with processor 41 = 1
    Number of processor patches = 4
    Number of processor faces = 2249
    Number of boundary faces = 2199
--> FOAM Warning : 
    From void* Foam::dlLibraryTable::openLibrary(const Foam::fileName&, bool)
    in file db/dynamicLibrary/dlLibraryTable/dlLibraryTable.C at line 188
    Could not load "libpetscFoam.so"
libpetscFoam.so: cannot open shared object file: No such file or directory

Processor 33
    Number of cells = 15325
    Number of points = 17614
    Number of faces shared with processor 1 = 300
    Number of faces shared with processor 32 = 1299
    Number of faces shared with processor 34 = 1250
    Number of faces shared with processor 41 = 625
    Number of processor patches = 4
    Number of processor faces = 3474
    Number of boundary faces = 926
--> FOAM Warning : 
    From void* Foam::dlLibraryTable::openLibrary(const Foam::fileName&, bool)
    in file db/dynamicLibrary/dlLibraryTable/dlLibraryTable.C at line 188
    Could not load "libpetscFoam.so"
libpetscFoam.so: cannot open shared object file: No such file or directory

Processor 34
    Number of cells = 15925
    Number of points = 18238
    Number of faces shared with processor 2 = 325
    Number of faces shared with processor 33 = 1250
    Number of faces shared with processor 35 = 1299
    Number of faces shared with processor 42 = 624
    Number of faces shared with processor 43 = 1
    Number of processor patches = 5
    Number of processor faces = 3499
    Number of boundary faces = 949
--> FOAM Warning : 
    From void* Foam::dlLibraryTable::openLibrary(const Foam::fileName&, bool)
    in file db/dynamicLibrary/dlLibraryTable/dlLibraryTable.C at line 188
    Could not load "libpetscFoam.so"
libpetscFoam.so: cannot open shared object file: No such file or directory

Processor 35
    Number of cells = 15325
    Number of points = 17614
    Number of faces shared with processor 3 = 300
    Number of faces shared with processor 34 = 1299
    Number of faces shared with processor 36 = 1250
    Number of faces shared with processor 43 = 625
    Number of processor patches = 4
    Number of processor faces = 3474
    Number of boundary faces = 926
--> FOAM Warning : 
    From void* Foam::dlLibraryTable::openLibrary(const Foam::fileName&, bool)
    in file db/dynamicLibrary/dlLibraryTable/dlLibraryTable.C at line 188
    Could not load "libpetscFoam.so"
libpetscFoam.so: cannot open shared object file: No such file or directory

Processor 36
    Number of cells = 15925
    Number of points = 18238
    Number of faces shared with processor 4 = 325
    Number of faces shared with processor 35 = 1250
    Number of faces shared with processor 37 = 1299
    Number of faces shared with processor 44 = 624
    Number of faces shared with processor 45 = 1
    Number of processor patches = 5
    Number of processor faces = 3499
    Number of boundary faces = 949
--> FOAM Warning : 
    From void* Foam::dlLibraryTable::openLibrary(const Foam::fileName&, bool)
    in file db/dynamicLibrary/dlLibraryTable/dlLibraryTable.C at line 188
    Could not load "libpetscFoam.so"
libpetscFoam.so: cannot open shared object file: No such file or directory

Processor 37
    Number of cells = 15325
    Number of points = 17614
    Number of faces shared with processor 5 = 300
    Number of faces shared with processor 36 = 1299
    Number of faces shared with processor 38 = 1250
    Number of faces shared with processor 45 = 625
    Number of processor patches = 4
    Number of processor faces = 3474
    Number of boundary faces = 926
--> FOAM Warning : 
    From void* Foam::dlLibraryTable::openLibrary(const Foam::fileName&, bool)
    in file db/dynamicLibrary/dlLibraryTable/dlLibraryTable.C at line 188
    Could not load "libpetscFoam.so"
libpetscFoam.so: cannot open shared object file: No such file or directory

Processor 38
    Number of cells = 15925
    Number of points = 18238
    Number of faces shared with processor 6 = 325
    Number of faces shared with processor 37 = 1250
    Number of faces shared with processor 39 = 1299
    Number of faces shared with processor 46 = 624
    Number of faces shared with processor 47 = 1
    Number of processor patches = 5
    Number of processor faces = 3499
    Number of boundary faces = 949
--> FOAM Warning : 
    From void* Foam::dlLibraryTable::openLibrary(const Foam::fileName&, bool)
    in file db/dynamicLibrary/dlLibraryTable/dlLibraryTable.C at line 188
    Could not load "libpetscFoam.so"
libpetscFoam.so: cannot open shared object file: No such file or directory

Processor 39
    Number of cells = 15325
    Number of points = 17614
    Number of faces shared with processor 7 = 300
    Number of faces shared with processor 38 = 1299
    Number of faces shared with processor 47 = 625
    Number of processor patches = 3
    Number of processor faces = 2224
    Number of boundary faces = 2176
--> FOAM Warning : 
    From void* Foam::dlLibraryTable::openLibrary(const Foam::fileName&, bool)
    in file db/dynamicLibrary/dlLibraryTable/dlLibraryTable.C at line 188
    Could not load "libpetscFoam.so"
libpetscFoam.so: cannot open shared object file: No such file or directory

Processor 40
    Number of cells = 15300
    Number of points = 17587
    Number of faces shared with processor 8 = 324
    Number of faces shared with processor 32 = 624
    Number of faces shared with processor 41 = 1298
    Number of faces shared with processor 48 = 600
    Number of processor patches = 4
    Number of processor faces = 2846
    Number of boundary faces = 1550
--> FOAM Warning : 
    From void* Foam::dlLibraryTable::openLibrary(const Foam::fileName&, bool)
    in file db/dynamicLibrary/dlLibraryTable/dlLibraryTable.C at line 188
    Could not load "libpetscFoam.so"
libpetscFoam.so: cannot open shared object file: No such file or directory

Processor 41
    Number of cells = 15950
    Number of points = 18264
    Number of faces shared with processor 8 = 1
    Number of faces shared with processor 9 = 300
    Number of faces shared with processor 32 = 1
    Number of faces shared with processor 33 = 625
    Number of faces shared with processor 40 = 1298
    Number of faces shared with processor 42 = 1250
    Number of faces shared with processor 49 = 650
    Number of processor patches = 7
    Number of processor faces = 4125
    Number of boundary faces = 325
--> FOAM Warning : 
    From void* Foam::dlLibraryTable::openLibrary(const Foam::fileName&, bool)
    in file db/dynamicLibrary/dlLibraryTable/dlLibraryTable.C at line 188
    Could not load "libpetscFoam.so"
libpetscFoam.so: cannot open shared object file: No such file or directory

Processor 42
    Number of cells = 15300
    Number of points = 17587
    Number of faces shared with processor 10 = 324
    Number of faces shared with processor 34 = 624
    Number of faces shared with processor 41 = 1250
    Number of faces shared with processor 43 = 1298
    Number of faces shared with processor 50 = 600
    Number of processor patches = 5
    Number of processor faces = 4096
    Number of boundary faces = 300
--> FOAM Warning : 
    From void* Foam::dlLibraryTable::openLibrary(const Foam::fileName&, bool)
    in file db/dynamicLibrary/dlLibraryTable/dlLibraryTable.C at line 188
    Could not load "libpetscFoam.so"
libpetscFoam.so: cannot open shared object file: No such file or directory

Processor 43
    Number of cells = 15950
    Number of points = 18264
    Number of faces shared with processor 10 = 1
    Number of faces shared with processor 11 = 300
    Number of faces shared with processor 34 = 1
    Number of faces shared with processor 35 = 625
    Number of faces shared with processor 42 = 1298
    Number of faces shared with processor 44 = 1250
    Number of faces shared with processor 51 = 650
    Number of processor patches = 7
    Number of processor faces = 4125
    Number of boundary faces = 325
--> FOAM Warning : 
    From void* Foam::dlLibraryTable::openLibrary(const Foam::fileName&, bool)
    in file db/dynamicLibrary/dlLibraryTable/dlLibraryTable.C at line 188
    Could not load "libpetscFoam.so"
libpetscFoam.so: cannot open shared object file: No such file or directory

Processor 44
    Number of cells = 15300
    Number of points = 17587
    Number of faces shared with processor 12 = 324
    Number of faces shared with processor 36 = 624
    Number of faces shared with processor 43 = 1250
    Number of faces shared with processor 45 = 1298
    Number of faces shared with processor 52 = 600
    Number of processor patches = 5
    Number of processor faces = 4096
    Number of boundary faces = 300
--> FOAM Warning : 
    From void* Foam::dlLibraryTable::openLibrary(const Foam::fileName&, bool)
    in file db/dynamicLibrary/dlLibraryTable/dlLibraryTable.C at line 188
    Could not load "libpetscFoam.so"
libpetscFoam.so: cannot open shared object file: No such file or directory

Processor 45
    Number of cells = 15950
    Number of points = 18264
    Number of faces shared with processor 12 = 1
    Number of faces shared with processor 13 = 300
    Number of faces shared with processor 36 = 1
    Number of faces shared with processor 37 = 625
    Number of faces shared with processor 44 = 1298
    Number of faces shared with processor 46 = 1250
    Number of faces shared with processor 53 = 650
    Number of processor patches = 7
    Number of processor faces = 4125
    Number of boundary faces = 325
--> FOAM Warning : 
    From void* Foam::dlLibraryTable::openLibrary(const Foam::fileName&, bool)
    in file db/dynamicLibrary/dlLibraryTable/dlLibraryTable.C at line 188
    Could not load "libpetscFoam.so"
libpetscFoam.so: cannot open shared object file: No such file or directory

Processor 46
    Number of cells = 15300
    Number of points = 17587
    Number of faces shared with processor 14 = 324
    Number of faces shared with processor 38 = 624
    Number of faces shared with processor 45 = 1250
    Number of faces shared with processor 47 = 1298
    Number of faces shared with processor 54 = 600
    Number of processor patches = 5
    Number of processor faces = 4096
    Number of boundary faces = 300
--> FOAM Warning : 
    From void* Foam::dlLibraryTable::openLibrary(const Foam::fileName&, bool)
    in file db/dynamicLibrary/dlLibraryTable/dlLibraryTable.C at line 188
    Could not load "libpetscFoam.so"
libpetscFoam.so: cannot open shared object file: No such file or directory

Processor 47
    Number of cells = 15950
    Number of points = 18264
    Number of faces shared with processor 14 = 1
    Number of faces shared with processor 15 = 300
    Number of faces shared with processor 38 = 1
    Number of faces shared with processor 39 = 625
    Number of faces shared with processor 46 = 1298
    Number of faces shared with processor 55 = 650
    Number of processor patches = 6
    Number of processor faces = 2875
    Number of boundary faces = 1575
--> FOAM Warning : 
    From void* Foam::dlLibraryTable::openLibrary(const Foam::fileName&, bool)
    in file db/dynamicLibrary/dlLibraryTable/dlLibraryTable.C at line 188
    Could not load "libpetscFoam.so"
libpetscFoam.so: cannot open shared object file: No such file or directory

Processor 48
    Number of cells = 15000
    Number of points = 17238
    Number of faces shared with processor 16 = 300
    Number of faces shared with processor 40 = 600
    Number of faces shared with processor 49 = 1250
    Number of faces shared with processor 56 = 600
    Number of processor patches = 4
    Number of processor faces = 2750
    Number of boundary faces = 1550
--> FOAM Warning : 
    From void* Foam::dlLibraryTable::openLibrary(const Foam::fileName&, bool)
    in file db/dynamicLibrary/dlLibraryTable/dlLibraryTable.C at line 188
    Could not load "libpetscFoam.so"
libpetscFoam.so: cannot open shared object file: No such file or directory

Processor 49
    Number of cells = 16250
    Number of points = 18564
    Number of faces shared with processor 16 = 1
    Number of faces shared with processor 17 = 324
    Number of faces shared with processor 41 = 650
    Number of faces shared with processor 48 = 1250
    Number of faces shared with processor 50 = 1250
    Number of faces shared with processor 57 = 650
    Number of processor patches = 6
    Number of processor faces = 4125
    Number of boundary faces = 325
--> FOAM Warning : 
    From void* Foam::dlLibraryTable::openLibrary(const Foam::fileName&, bool)
    in file db/dynamicLibrary/dlLibraryTable/dlLibraryTable.C at line 188
    Could not load "libpetscFoam.so"
libpetscFoam.so: cannot open shared object file: No such file or directory

Processor 50
    Number of cells = 15000
    Number of points = 17238
    Number of faces shared with processor 18 = 300
    Number of faces shared with processor 42 = 600
    Number of faces shared with processor 49 = 1250
    Number of faces shared with processor 51 = 1250
    Number of faces shared with processor 58 = 600
    Number of processor patches = 5
    Number of processor faces = 4000
    Number of boundary faces = 300
--> FOAM Warning : 
    From void* Foam::dlLibraryTable::openLibrary(const Foam::fileName&, bool)
    in file db/dynamicLibrary/dlLibraryTable/dlLibraryTable.C at line 188
    Could not load "libpetscFoam.so"
libpetscFoam.so: cannot open shared object file: No such file or directory

Processor 51
    Number of cells = 16250
    Number of points = 18564
    Number of faces shared with processor 18 = 1
    Number of faces shared with processor 19 = 324
    Number of faces shared with processor 43 = 650
    Number of faces shared with processor 50 = 1250
    Number of faces shared with processor 52 = 1250
    Number of faces shared with processor 59 = 650
    Number of processor patches = 6
    Number of processor faces = 4125
    Number of boundary faces = 325
--> FOAM Warning : 
    From void* Foam::dlLibraryTable::openLibrary(const Foam::fileName&, bool)
    in file db/dynamicLibrary/dlLibraryTable/dlLibraryTable.C at line 188
    Could not load "libpetscFoam.so"
libpetscFoam.so: cannot open shared object file: No such file or directory

Processor 52
    Number of cells = 15000
    Number of points = 17238
    Number of faces shared with processor 20 = 300
    Number of faces shared with processor 44 = 600
    Number of faces shared with processor 51 = 1250
    Number of faces shared with processor 53 = 1250
    Number of faces shared with processor 60 = 600
    Number of processor patches = 5
    Number of processor faces = 4000
    Number of boundary faces = 300
--> FOAM Warning : 
    From void* Foam::dlLibraryTable::openLibrary(const Foam::fileName&, bool)
    in file db/dynamicLibrary/dlLibraryTable/dlLibraryTable.C at line 188
    Could not load "libpetscFoam.so"
libpetscFoam.so: cannot open shared object file: No such file or directory

Processor 53
    Number of cells = 16250
    Number of points = 18564
    Number of faces shared with processor 20 = 1
    Number of faces shared with processor 21 = 324
    Number of faces shared with processor 45 = 650
    Number of faces shared with processor 52 = 1250
    Number of faces shared with processor 54 = 1250
    Number of faces shared with processor 61 = 650
    Number of processor patches = 6
    Number of processor faces = 4125
    Number of boundary faces = 325
--> FOAM Warning : 
    From void* Foam::dlLibraryTable::openLibrary(const Foam::fileName&, bool)
    in file db/dynamicLibrary/dlLibraryTable/dlLibraryTable.C at line 188
    Could not load "libpetscFoam.so"
libpetscFoam.so: cannot open shared object file: No such file or directory

Processor 54
    Number of cells = 15000
    Number of points = 17238
    Number of faces shared with processor 22 = 300
    Number of faces shared with processor 46 = 600
    Number of faces shared with processor 53 = 1250
    Number of faces shared with processor 55 = 1250
    Number of faces shared with processor 62 = 600
    Number of processor patches = 5
    Number of processor faces = 4000
    Number of boundary faces = 300
--> FOAM Warning : 
    From void* Foam::dlLibraryTable::openLibrary(const Foam::fileName&, bool)
    in file db/dynamicLibrary/dlLibraryTable/dlLibraryTable.C at line 188
    Could not load "libpetscFoam.so"
libpetscFoam.so: cannot open shared object file: No such file or directory

Processor 55
    Number of cells = 16250
    Number of points = 18564
    Number of faces shared with processor 22 = 1
    Number of faces shared with processor 23 = 324
    Number of faces shared with processor 47 = 650
    Number of faces shared with processor 54 = 1250
    Number of faces shared with processor 63 = 650
    Number of processor patches = 5
    Number of processor faces = 2875
    Number of boundary faces = 1575
--> FOAM Warning : 
    From void* Foam::dlLibraryTable::openLibrary(const Foam::fileName&, bool)
    in file db/dynamicLibrary/dlLibraryTable/dlLibraryTable.C at line 188
    Could not load "libpetscFoam.so"
libpetscFoam.so: cannot open shared object file: No such file or directory

Processor 56
    Number of cells = 15000
    Number of points = 17238
    Number of faces shared with processor 24 = 300
    Number of faces shared with processor 48 = 600
    Number of faces shared with processor 57 = 1250
    Number of processor patches = 3
    Number of processor faces = 2150
    Number of boundary faces = 2150
--> FOAM Warning : 
    From void* Foam::dlLibraryTable::openLibrary(const Foam::fileName&, bool)
    in file db/dynamicLibrary/dlLibraryTable/dlLibraryTable.C at line 188
    Could not load "libpetscFoam.so"
libpetscFoam.so: cannot open shared object file: No such file or directory

Processor 57
    Number of cells = 16250
    Number of points = 18564
    Number of faces shared with processor 25 = 325
    Number of faces shared with processor 49 = 650
    Number of faces shared with processor 56 = 1250
    Number of faces shared with processor 58 = 1250
    Number of processor patches = 4
    Number of processor faces = 3475
    Number of boundary faces = 975
--> FOAM Warning : 
    From void* Foam::dlLibraryTable::openLibrary(const Foam::fileName&, bool)
    in file db/dynamicLibrary/dlLibraryTable/dlLibraryTable.C at line 188
    Could not load "libpetscFoam.so"
libpetscFoam.so: cannot open shared object file: No such file or directory

Processor 58
    Number of cells = 15000
    Number of points = 17238
    Number of faces shared with processor 26 = 300
    Number of faces shared with processor 50 = 600
    Number of faces shared with processor 57 = 1250
    Number of faces shared with processor 59 = 1250
    Number of processor patches = 4
    Number of processor faces = 3400
    Number of boundary faces = 900
--> FOAM Warning : 
    From void* Foam::dlLibraryTable::openLibrary(const Foam::fileName&, bool)
    in file db/dynamicLibrary/dlLibraryTable/dlLibraryTable.C at line 188
    Could not load "libpetscFoam.so"
libpetscFoam.so: cannot open shared object file: No such file or directory

Processor 59
    Number of cells = 16250
    Number of points = 18564
    Number of faces shared with processor 27 = 325
    Number of faces shared with processor 51 = 650
    Number of faces shared with processor 58 = 1250
    Number of faces shared with processor 60 = 1250
    Number of processor patches = 4
    Number of processor faces = 3475
    Number of boundary faces = 975
--> FOAM Warning : 
    From void* Foam::dlLibraryTable::openLibrary(const Foam::fileName&, bool)
    in file db/dynamicLibrary/dlLibraryTable/dlLibraryTable.C at line 188
    Could not load "libpetscFoam.so"
libpetscFoam.so: cannot open shared object file: No such file or directory

Processor 60
    Number of cells = 15000
    Number of points = 17238
    Number of faces shared with processor 28 = 300
    Number of faces shared with processor 52 = 600
    Number of faces shared with processor 59 = 1250
    Number of faces shared with processor 61 = 1250
    Number of processor patches = 4
    Number of processor faces = 3400
    Number of boundary faces = 900
--> FOAM Warning : 
    From void* Foam::dlLibraryTable::openLibrary(const Foam::fileName&, bool)
    in file db/dynamicLibrary/dlLibraryTable/dlLibraryTable.C at line 188
    Could not load "libpetscFoam.so"
libpetscFoam.so: cannot open shared object file: No such file or directory

Processor 61
    Number of cells = 16250
    Number of points = 18564
    Number of faces shared with processor 29 = 325
    Number of faces shared with processor 53 = 650
    Number of faces shared with processor 60 = 1250
    Number of faces shared with processor 62 = 1250
    Number of processor patches = 4
    Number of processor faces = 3475
    Number of boundary faces = 975
--> FOAM Warning : 
    From void* Foam::dlLibraryTable::openLibrary(const Foam::fileName&, bool)
    in file db/dynamicLibrary/dlLibraryTable/dlLibraryTable.C at line 188
    Could not load "libpetscFoam.so"
libpetscFoam.so: cannot open shared object file: No such file or directory

Processor 62
    Number of cells = 15000
    Number of points = 17238
    Number of faces shared with processor 30 = 300
    Number of faces shared with processor 54 = 600
    Number of faces shared with processor 61 = 1250
    Number of faces shared with processor 63 = 1250
    Number of processor patches = 4
    Number of processor faces = 3400
    Number of boundary faces = 900
--> FOAM Warning : 
    From void* Foam::dlLibraryTable::openLibrary(const Foam::fileName&, bool)
    in file db/dynamicLibrary/dlLibraryTable/dlLibraryTable.C at line 188
    Could not load "libpetscFoam.so"
libpetscFoam.so: cannot open shared object file: No such file or directory

Processor 63
    Number of cells = 16250
    Number of points = 18564
    Number of faces shared with processor 31 = 325
    Number of faces shared with processor 55 = 650
    Number of faces shared with processor 62 = 1250
    Number of processor patches = 3
    Number of processor faces = 2225
    Number of boundary faces = 2225

Number of processor faces = 110776
Max number of cells = 16250 (4% above average 15625)
Max number of processor patches = 7 (47.3684% above average 4.75)
Max number of faces between processors = 4125 (19.1594% above average 3461.75)

Time = 0

Processor 0: field transfer
--> FOAM Warning : 
    From void* Foam::dlLibraryTable::openLibrary(const Foam::fileName&, bool)
    in file db/dynamicLibrary/dlLibraryTable/dlLibraryTable.C at line 188
    Could not load "libpetscFoam.so"
libpetscFoam.so: cannot open shared object file: No such file or directory
Processor 1: field transfer
--> FOAM Warning : 
    From void* Foam::dlLibraryTable::openLibrary(const Foam::fileName&, bool)
    in file db/dynamicLibrary/dlLibraryTable/dlLibraryTable.C at line 188
    Could not load "libpetscFoam.so"
libpetscFoam.so: cannot open shared object file: No such file or directory
Processor 2: field transfer
--> FOAM Warning : 
    From void* Foam::dlLibraryTable::openLibrary(const Foam::fileName&, bool)
    in file db/dynamicLibrary/dlLibraryTable/dlLibraryTable.C at line 188
    Could not load "libpetscFoam.so"
libpetscFoam.so: cannot open shared object file: No such file or directory
Processor 3: field transfer
--> FOAM Warning : 
    From void* Foam::dlLibraryTable::openLibrary(const Foam::fileName&, bool)
    in file db/dynamicLibrary/dlLibraryTable/dlLibraryTable.C at line 188
    Could not load "libpetscFoam.so"
libpetscFoam.so: cannot open shared object file: No such file or directory
Processor 4: field transfer
--> FOAM Warning : 
    From void* Foam::dlLibraryTable::openLibrary(const Foam::fileName&, bool)
    in file db/dynamicLibrary/dlLibraryTable/dlLibraryTable.C at line 188
    Could not load "libpetscFoam.so"
libpetscFoam.so: cannot open shared object file: No such file or directory
Processor 5: field transfer
--> FOAM Warning : 
    From void* Foam::dlLibraryTable::openLibrary(const Foam::fileName&, bool)
    in file db/dynamicLibrary/dlLibraryTable/dlLibraryTable.C at line 188
    Could not load "libpetscFoam.so"
libpetscFoam.so: cannot open shared object file: No such file or directory
Processor 6: field transfer
--> FOAM Warning : 
    From void* Foam::dlLibraryTable::openLibrary(const Foam::fileName&, bool)
    in file db/dynamicLibrary/dlLibraryTable/dlLibraryTable.C at line 188
    Could not load "libpetscFoam.so"
libpetscFoam.so: cannot open shared object file: No such file or directory
Processor 7: field transfer
--> FOAM Warning : 
    From void* Foam::dlLibraryTable::openLibrary(const Foam::fileName&, bool)
    in file db/dynamicLibrary/dlLibraryTable/dlLibraryTable.C at line 188
    Could not load "libpetscFoam.so"
libpetscFoam.so: cannot open shared object file: No such file or directory
Processor 8: field transfer
--> FOAM Warning : 
    From void* Foam::dlLibraryTable::openLibrary(const Foam::fileName&, bool)
    in file db/dynamicLibrary/dlLibraryTable/dlLibraryTable.C at line 188
    Could not load "libpetscFoam.so"
libpetscFoam.so: cannot open shared object file: No such file or directory
Processor 9: field transfer
--> FOAM Warning : 
    From void* Foam::dlLibraryTable::openLibrary(const Foam::fileName&, bool)
    in file db/dynamicLibrary/dlLibraryTable/dlLibraryTable.C at line 188
    Could not load "libpetscFoam.so"
libpetscFoam.so: cannot open shared object file: No such file or directory
Processor 10: field transfer
--> FOAM Warning : 
    From void* Foam::dlLibraryTable::openLibrary(const Foam::fileName&, bool)
    in file db/dynamicLibrary/dlLibraryTable/dlLibraryTable.C at line 188
    Could not load "libpetscFoam.so"
libpetscFoam.so: cannot open shared object file: No such file or directory
Processor 11: field transfer
--> FOAM Warning : 
    From void* Foam::dlLibraryTable::openLibrary(const Foam::fileName&, bool)
    in file db/dynamicLibrary/dlLibraryTable/dlLibraryTable.C at line 188
    Could not load "libpetscFoam.so"
libpetscFoam.so: cannot open shared object file: No such file or directory
Processor 12: field transfer
--> FOAM Warning : 
    From void* Foam::dlLibraryTable::openLibrary(const Foam::fileName&, bool)
    in file db/dynamicLibrary/dlLibraryTable/dlLibraryTable.C at line 188
    Could not load "libpetscFoam.so"
libpetscFoam.so: cannot open shared object file: No such file or directory
Processor 13: field transfer
--> FOAM Warning : 
    From void* Foam::dlLibraryTable::openLibrary(const Foam::fileName&, bool)
    in file db/dynamicLibrary/dlLibraryTable/dlLibraryTable.C at line 188
    Could not load "libpetscFoam.so"
libpetscFoam.so: cannot open shared object file: No such file or directory
Processor 14: field transfer
--> FOAM Warning : 
    From void* Foam::dlLibraryTable::openLibrary(const Foam::fileName&, bool)
    in file db/dynamicLibrary/dlLibraryTable/dlLibraryTable.C at line 188
    Could not load "libpetscFoam.so"
libpetscFoam.so: cannot open shared object file: No such file or directory
Processor 15: field transfer
--> FOAM Warning : 
    From void* Foam::dlLibraryTable::openLibrary(const Foam::fileName&, bool)
    in file db/dynamicLibrary/dlLibraryTable/dlLibraryTable.C at line 188
    Could not load "libpetscFoam.so"
libpetscFoam.so: cannot open shared object file: No such file or directory
Processor 16: field transfer
--> FOAM Warning : 
    From void* Foam::dlLibraryTable::openLibrary(const Foam::fileName&, bool)
    in file db/dynamicLibrary/dlLibraryTable/dlLibraryTable.C at line 188
    Could not load "libpetscFoam.so"
libpetscFoam.so: cannot open shared object file: No such file or directory
Processor 17: field transfer
--> FOAM Warning : 
    From void* Foam::dlLibraryTable::openLibrary(const Foam::fileName&, bool)
    in file db/dynamicLibrary/dlLibraryTable/dlLibraryTable.C at line 188
    Could not load "libpetscFoam.so"
libpetscFoam.so: cannot open shared object file: No such file or directory
Processor 18: field transfer
--> FOAM Warning : 
    From void* Foam::dlLibraryTable::openLibrary(const Foam::fileName&, bool)
    in file db/dynamicLibrary/dlLibraryTable/dlLibraryTable.C at line 188
    Could not load "libpetscFoam.so"
libpetscFoam.so: cannot open shared object file: No such file or directory
Processor 19: field transfer
--> FOAM Warning : 
    From void* Foam::dlLibraryTable::openLibrary(const Foam::fileName&, bool)
    in file db/dynamicLibrary/dlLibraryTable/dlLibraryTable.C at line 188
    Could not load "libpetscFoam.so"
libpetscFoam.so: cannot open shared object file: No such file or directory
Processor 20: field transfer
--> FOAM Warning : 
    From void* Foam::dlLibraryTable::openLibrary(const Foam::fileName&, bool)
    in file db/dynamicLibrary/dlLibraryTable/dlLibraryTable.C at line 188
    Could not load "libpetscFoam.so"
libpetscFoam.so: cannot open shared object file: No such file or directory
Processor 21: field transfer
--> FOAM Warning : 
    From void* Foam::dlLibraryTable::openLibrary(const Foam::fileName&, bool)
    in file db/dynamicLibrary/dlLibraryTable/dlLibraryTable.C at line 188
    Could not load "libpetscFoam.so"
libpetscFoam.so: cannot open shared object file: No such file or directory
Processor 22: field transfer
--> FOAM Warning : 
    From void* Foam::dlLibraryTable::openLibrary(const Foam::fileName&, bool)
    in file db/dynamicLibrary/dlLibraryTable/dlLibraryTable.C at line 188
    Could not load "libpetscFoam.so"
libpetscFoam.so: cannot open shared object file: No such file or directory
Processor 23: field transfer
--> FOAM Warning : 
    From void* Foam::dlLibraryTable::openLibrary(const Foam::fileName&, bool)
    in file db/dynamicLibrary/dlLibraryTable/dlLibraryTable.C at line 188
    Could not load "libpetscFoam.so"
libpetscFoam.so: cannot open shared object file: No such file or directory
Processor 24: field transfer
--> FOAM Warning : 
    From void* Foam::dlLibraryTable::openLibrary(const Foam::fileName&, bool)
    in file db/dynamicLibrary/dlLibraryTable/dlLibraryTable.C at line 188
    Could not load "libpetscFoam.so"
libpetscFoam.so: cannot open shared object file: No such file or directory
Processor 25: field transfer
--> FOAM Warning : 
    From void* Foam::dlLibraryTable::openLibrary(const Foam::fileName&, bool)
    in file db/dynamicLibrary/dlLibraryTable/dlLibraryTable.C at line 188
    Could not load "libpetscFoam.so"
libpetscFoam.so: cannot open shared object file: No such file or directory
Processor 26: field transfer
--> FOAM Warning : 
    From void* Foam::dlLibraryTable::openLibrary(const Foam::fileName&, bool)
    in file db/dynamicLibrary/dlLibraryTable/dlLibraryTable.C at line 188
    Could not load "libpetscFoam.so"
libpetscFoam.so: cannot open shared object file: No such file or directory
Processor 27: field transfer
--> FOAM Warning : 
    From void* Foam::dlLibraryTable::openLibrary(const Foam::fileName&, bool)
    in file db/dynamicLibrary/dlLibraryTable/dlLibraryTable.C at line 188
    Could not load "libpetscFoam.so"
libpetscFoam.so: cannot open shared object file: No such file or directory
Processor 28: field transfer
--> FOAM Warning : 
    From void* Foam::dlLibraryTable::openLibrary(const Foam::fileName&, bool)
    in file db/dynamicLibrary/dlLibraryTable/dlLibraryTable.C at line 188
    Could not load "libpetscFoam.so"
libpetscFoam.so: cannot open shared object file: No such file or directory
Processor 29: field transfer
--> FOAM Warning : 
    From void* Foam::dlLibraryTable::openLibrary(const Foam::fileName&, bool)
    in file db/dynamicLibrary/dlLibraryTable/dlLibraryTable.C at line 188
    Could not load "libpetscFoam.so"
libpetscFoam.so: cannot open shared object file: No such file or directory
Processor 30: field transfer
--> FOAM Warning : 
    From void* Foam::dlLibraryTable::openLibrary(const Foam::fileName&, bool)
    in file db/dynamicLibrary/dlLibraryTable/dlLibraryTable.C at line 188
    Could not load "libpetscFoam.so"
libpetscFoam.so: cannot open shared object file: No such file or directory
Processor 31: field transfer
--> FOAM Warning : 
    From void* Foam::dlLibraryTable::openLibrary(const Foam::fileName&, bool)
    in file db/dynamicLibrary/dlLibraryTable/dlLibraryTable.C at line 188
    Could not load "libpetscFoam.so"
libpetscFoam.so: cannot open shared object file: No such file or directory
Processor 32: field transfer
--> FOAM Warning : 
    From void* Foam::dlLibraryTable::openLibrary(const Foam::fileName&, bool)
    in file db/dynamicLibrary/dlLibraryTable/dlLibraryTable.C at line 188
    Could not load "libpetscFoam.so"
libpetscFoam.so: cannot open shared object file: No such file or directory
Processor 33: field transfer
--> FOAM Warning : 
    From void* Foam::dlLibraryTable::openLibrary(const Foam::fileName&, bool)
    in file db/dynamicLibrary/dlLibraryTable/dlLibraryTable.C at line 188
    Could not load "libpetscFoam.so"
libpetscFoam.so: cannot open shared object file: No such file or directory
Processor 34: field transfer
--> FOAM Warning : 
    From void* Foam::dlLibraryTable::openLibrary(const Foam::fileName&, bool)
    in file db/dynamicLibrary/dlLibraryTable/dlLibraryTable.C at line 188
    Could not load "libpetscFoam.so"
libpetscFoam.so: cannot open shared object file: No such file or directory
Processor 35: field transfer
--> FOAM Warning : 
    From void* Foam::dlLibraryTable::openLibrary(const Foam::fileName&, bool)
    in file db/dynamicLibrary/dlLibraryTable/dlLibraryTable.C at line 188
    Could not load "libpetscFoam.so"
libpetscFoam.so: cannot open shared object file: No such file or directory
Processor 36: field transfer
--> FOAM Warning : 
    From void* Foam::dlLibraryTable::openLibrary(const Foam::fileName&, bool)
    in file db/dynamicLibrary/dlLibraryTable/dlLibraryTable.C at line 188
    Could not load "libpetscFoam.so"
libpetscFoam.so: cannot open shared object file: No such file or directory
Processor 37: field transfer
--> FOAM Warning : 
    From void* Foam::dlLibraryTable::openLibrary(const Foam::fileName&, bool)
    in file db/dynamicLibrary/dlLibraryTable/dlLibraryTable.C at line 188
    Could not load "libpetscFoam.so"
libpetscFoam.so: cannot open shared object file: No such file or directory
Processor 38: field transfer
--> FOAM Warning : 
    From void* Foam::dlLibraryTable::openLibrary(const Foam::fileName&, bool)
    in file db/dynamicLibrary/dlLibraryTable/dlLibraryTable.C at line 188
    Could not load "libpetscFoam.so"
libpetscFoam.so: cannot open shared object file: No such file or directory
Processor 39: field transfer
--> FOAM Warning : 
    From void* Foam::dlLibraryTable::openLibrary(const Foam::fileName&, bool)
    in file db/dynamicLibrary/dlLibraryTable/dlLibraryTable.C at line 188
    Could not load "libpetscFoam.so"
libpetscFoam.so: cannot open shared object file: No such file or directory
Processor 40: field transfer
--> FOAM Warning : 
    From void* Foam::dlLibraryTable::openLibrary(const Foam::fileName&, bool)
    in file db/dynamicLibrary/dlLibraryTable/dlLibraryTable.C at line 188
    Could not load "libpetscFoam.so"
libpetscFoam.so: cannot open shared object file: No such file or directory
Processor 41: field transfer
--> FOAM Warning : 
    From void* Foam::dlLibraryTable::openLibrary(const Foam::fileName&, bool)
    in file db/dynamicLibrary/dlLibraryTable/dlLibraryTable.C at line 188
    Could not load "libpetscFoam.so"
libpetscFoam.so: cannot open shared object file: No such file or directory
Processor 42: field transfer
--> FOAM Warning : 
    From void* Foam::dlLibraryTable::openLibrary(const Foam::fileName&, bool)
    in file db/dynamicLibrary/dlLibraryTable/dlLibraryTable.C at line 188
    Could not load "libpetscFoam.so"
libpetscFoam.so: cannot open shared object file: No such file or directory
Processor 43: field transfer
--> FOAM Warning : 
    From void* Foam::dlLibraryTable::openLibrary(const Foam::fileName&, bool)
    in file db/dynamicLibrary/dlLibraryTable/dlLibraryTable.C at line 188
    Could not load "libpetscFoam.so"
libpetscFoam.so: cannot open shared object file: No such file or directory
Processor 44: field transfer
--> FOAM Warning : 
    From void* Foam::dlLibraryTable::openLibrary(const Foam::fileName&, bool)
    in file db/dynamicLibrary/dlLibraryTable/dlLibraryTable.C at line 188
    Could not load "libpetscFoam.so"
libpetscFoam.so: cannot open shared object file: No such file or directory
Processor 45: field transfer
--> FOAM Warning : 
    From void* Foam::dlLibraryTable::openLibrary(const Foam::fileName&, bool)
    in file db/dynamicLibrary/dlLibraryTable/dlLibraryTable.C at line 188
    Could not load "libpetscFoam.so"
libpetscFoam.so: cannot open shared object file: No such file or directory
Processor 46: field transfer
--> FOAM Warning : 
    From void* Foam::dlLibraryTable::openLibrary(const Foam::fileName&, bool)
    in file db/dynamicLibrary/dlLibraryTable/dlLibraryTable.C at line 188
    Could not load "libpetscFoam.so"
libpetscFoam.so: cannot open shared object file: No such file or directory
Processor 47: field transfer
--> FOAM Warning : 
    From void* Foam::dlLibraryTable::openLibrary(const Foam::fileName&, bool)
    in file db/dynamicLibrary/dlLibraryTable/dlLibraryTable.C at line 188
    Could not load "libpetscFoam.so"
libpetscFoam.so: cannot open shared object file: No such file or directory
Processor 48: field transfer
--> FOAM Warning : 
    From void* Foam::dlLibraryTable::openLibrary(const Foam::fileName&, bool)
    in file db/dynamicLibrary/dlLibraryTable/dlLibraryTable.C at line 188
    Could not load "libpetscFoam.so"
libpetscFoam.so: cannot open shared object file: No such file or directory
Processor 49: field transfer
--> FOAM Warning : 
    From void* Foam::dlLibraryTable::openLibrary(const Foam::fileName&, bool)
    in file db/dynamicLibrary/dlLibraryTable/dlLibraryTable.C at line 188
    Could not load "libpetscFoam.so"
libpetscFoam.so: cannot open shared object file: No such file or directory
Processor 50: field transfer
--> FOAM Warning : 
    From void* Foam::dlLibraryTable::openLibrary(const Foam::fileName&, bool)
    in file db/dynamicLibrary/dlLibraryTable/dlLibraryTable.C at line 188
    Could not load "libpetscFoam.so"
libpetscFoam.so: cannot open shared object file: No such file or directory
Processor 51: field transfer
--> FOAM Warning : 
    From void* Foam::dlLibraryTable::openLibrary(const Foam::fileName&, bool)
    in file db/dynamicLibrary/dlLibraryTable/dlLibraryTable.C at line 188
    Could not load "libpetscFoam.so"
libpetscFoam.so: cannot open shared object file: No such file or directory
Processor 52: field transfer
--> FOAM Warning : 
    From void* Foam::dlLibraryTable::openLibrary(const Foam::fileName&, bool)
    in file db/dynamicLibrary/dlLibraryTable/dlLibraryTable.C at line 188
    Could not load "libpetscFoam.so"
libpetscFoam.so: cannot open shared object file: No such file or directory
Processor 53: field transfer
--> FOAM Warning : 
    From void* Foam::dlLibraryTable::openLibrary(const Foam::fileName&, bool)
    in file db/dynamicLibrary/dlLibraryTable/dlLibraryTable.C at line 188
    Could not load "libpetscFoam.so"
libpetscFoam.so: cannot open shared object file: No such file or directory
Processor 54: field transfer
--> FOAM Warning : 
    From void* Foam::dlLibraryTable::openLibrary(const Foam::fileName&, bool)
    in file db/dynamicLibrary/dlLibraryTable/dlLibraryTable.C at line 188
    Could not load "libpetscFoam.so"
libpetscFoam.so: cannot open shared object file: No such file or directory
Processor 55: field transfer
--> FOAM Warning : 
    From void* Foam::dlLibraryTable::openLibrary(const Foam::fileName&, bool)
    in file db/dynamicLibrary/dlLibraryTable/dlLibraryTable.C at line 188
    Could not load "libpetscFoam.so"
libpetscFoam.so: cannot open shared object file: No such file or directory
Processor 56: field transfer
--> FOAM Warning : 
    From void* Foam::dlLibraryTable::openLibrary(const Foam::fileName&, bool)
    in file db/dynamicLibrary/dlLibraryTable/dlLibraryTable.C at line 188
    Could not load "libpetscFoam.so"
libpetscFoam.so: cannot open shared object file: No such file or directory
Processor 57: field transfer
--> FOAM Warning : 
    From void* Foam::dlLibraryTable::openLibrary(const Foam::fileName&, bool)
    in file db/dynamicLibrary/dlLibraryTable/dlLibraryTable.C at line 188
    Could not load "libpetscFoam.so"
libpetscFoam.so: cannot open shared object file: No such file or directory
Processor 58: field transfer
--> FOAM Warning : 
    From void* Foam::dlLibraryTable::openLibrary(const Foam::fileName&, bool)
    in file db/dynamicLibrary/dlLibraryTable/dlLibraryTable.C at line 188
    Could not load "libpetscFoam.so"
libpetscFoam.so: cannot open shared object file: No such file or directory
Processor 59: field transfer
--> FOAM Warning : 
    From void* Foam::dlLibraryTable::openLibrary(const Foam::fileName&, bool)
    in file db/dynamicLibrary/dlLibraryTable/dlLibraryTable.C at line 188
    Could not load "libpetscFoam.so"
libpetscFoam.so: cannot open shared object file: No such file or directory
Processor 60: field transfer
--> FOAM Warning : 
    From void* Foam::dlLibraryTable::openLibrary(const Foam::fileName&, bool)
    in file db/dynamicLibrary/dlLibraryTable/dlLibraryTable.C at line 188
    Could not load "libpetscFoam.so"
libpetscFoam.so: cannot open shared object file: No such file or directory
Processor 61: field transfer
--> FOAM Warning : 
    From void* Foam::dlLibraryTable::openLibrary(const Foam::fileName&, bool)
    in file db/dynamicLibrary/dlLibraryTable/dlLibraryTable.C at line 188
    Could not load "libpetscFoam.so"
libpetscFoam.so: cannot open shared object file: No such file or directory
Processor 62: field transfer
--> FOAM Warning : 
    From void* Foam::dlLibraryTable::openLibrary(const Foam::fileName&, bool)
    in file db/dynamicLibrary/dlLibraryTable/dlLibraryTable.C at line 188
    Could not load "libpetscFoam.so"
libpetscFoam.so: cannot open shared object file: No such file or directory
Processor 63: field transfer
--> FOAM Warning : 
    From void* Foam::dlLibraryTable::openLibrary(const Foam::fileName&, bool)
    in file db/dynamicLibrary/dlLibraryTable/dlLibraryTable.C at line 188
    Could not load "libpetscFoam.so"
libpetscFoam.so: cannot open shared object file: No such file or directory

End

