/*---------------------------------------------------------------------------*\
| =========                 |                                                 |
| \\      /  F ield         | OpenFOAM: The Open Source CFD Toolbox           |
|  \\    /   O peration     | Version:  2306                                  |
|   \\  /    A nd           | Website:  www.openfoam.com                      |
|    \\/     M anipulation  |                                                 |
\*---------------------------------------------------------------------------*/
Build  : c423ebec-20231012 OPENFOAM=2306 version=v2306
Arch   : "LSB;label=32;scalar=64"
Exec   : icoFoam -parallel -case /hkfs/work/workspace/scratch/eq4036-l3d_multi/workspace/d23247a67cabb8e38935b53651fab5fb/case
Date   : Feb 05 2024
Time   : 08:54:50
Host   : hkn0030.localdomain
PID    : 674759
I/O    : uncollated
Case   : /hkfs/work/workspace/scratch/eq4036-l3d_multi/workspace/d23247a67cabb8e38935b53651fab5fb/case
nProcs : 152
Hosts  :
(
    (hkn0030.localdomain 76)
    (hkn0031.localdomain 76)
)
Pstream initialized with:
    floatTransfer      : false
    nProcsSimpleSum    : 0
    nonBlockingExchange: 0 (tuning: 0)
    exchange algorithm : -1
    commsType          : nonBlocking
    polling iterations : 0
trapFpe: Floating point exception trapping enabled (FOAM_SIGFPE).
fileModificationChecking : Monitoring run-time modified files using timeStampMaster (fileModificationSkew 5, maxFileModificationPolls 20)
allowSystemOperations : Allowing user-supplied system call operations

// * * * * * * * * * * * * * * * * * * * * * * * * * * * * * * * * * * * * * //
Create time

--> FOAM Warning : 
    From void* Foam::dlLibraryTable::openLibrary(const Foam::fileName&, bool)
    in file db/dynamicLibrary/dlLibraryTable/dlLibraryTable.C at line 188
    Could not load "libpetscFoam.so"
libpetscFoam.so: cannot open shared object file: No such file or directory
Create mesh for time = 0


PISO: Operating solver in PISO mode

Reading transportProperties

Reading field p

Reading field U

Reading/calculating face flux field phi


Starting time loop

Time = 0.0001

Courant Number mean: 6.42004e-18 max: 3.88578e-14
[INFO] MatrixAssemblyU: 255.92 [ms]
DILUPBiCGStab:  Solving for Ux, Initial residual = 1, Final residual = 0.0200914, No Iterations 5
DILUPBiCGStab:  Solving for Uy:  solution singularity
DILUPBiCGStab:  Solving for Uz:  solution singularity
[INFO] MomentumPredictor: 869.692 [ms]
[INFO] MatrixAssemblyPI: 258.358 [ms]
[INFO] AdjustPhi: 18.067 [ms]
[INFO] ConstrainPressure: 0.007 [ms]
[INFO] MatrixAssemblyPII: 61.895 [ms]
GAMG:  Solving for p, Initial residual = 1, Final residual = 7.11662e-05, No Iterations 33
[INFO] SolveP: 4486.17 [ms]
time step continuity errors : sum local = 1.32253e-09, global = 1.02099e-21, cumulative = 1.02099e-21
[INFO] ContinuityError: 36.62 [ms]
[INFO] CorrectBoundary: 0.883 [ms]
[INFO] PISOStep: 4953.27 [ms]
[INFO] MatrixAssemblyPI: 247.648 [ms]
[INFO] AdjustPhi: 19.183 [ms]
[INFO] ConstrainPressure: 0.004 [ms]
[INFO] MatrixAssemblyPII: 63.607 [ms]
GAMG:  Solving for p, Initial residual = 0.811099, Final residual = 6.9625e-05, No Iterations 46
[INFO] SolveP: 5784.47 [ms]
time step continuity errors : sum local = 1.57878e-09, global = 2.95983e-22, cumulative = 1.31697e-21
[INFO] ContinuityError: 26.456 [ms]
[INFO] CorrectBoundary: 1.004 [ms]
[INFO] PISOStep: 6235.29 [ms]
[INFO] TimeStep: 12346.4 [ms]
ExecutionTime = 13.52 s  ClockTime = 14 s

Time = 0.0002

Courant Number mean: 0.0080371 max: 0.345634
[INFO] MatrixAssemblyU: 205.291 [ms]
DILUPBiCGStab:  Solving for Ux, Initial residual = 0.113006, Final residual = 0.012352, No Iterations 5
DILUPBiCGStab:  Solving for Uy, Initial residual = 0.45992, Final residual = 0.0430897, No Iterations 5
DILUPBiCGStab:  Solving for Uz, Initial residual = 0.976087, Final residual = 0.0987459, No Iterations 5
[INFO] MomentumPredictor: 1731.94 [ms]
[INFO] MatrixAssemblyPI: 252.401 [ms]
[INFO] AdjustPhi: 15.949 [ms]
[INFO] ConstrainPressure: 0.004 [ms]
[INFO] MatrixAssemblyPII: 62.697 [ms]
GAMG:  Solving for p, Initial residual = 0.888433, Final residual = 9.29303e-05, No Iterations 36
[INFO] SolveP: 4463.25 [ms]
time step continuity errors : sum local = 4.36775e-09, global = 4.45111e-22, cumulative = 1.76208e-21
[INFO] ContinuityError: 23.125 [ms]
[INFO] CorrectBoundary: 1.709 [ms]
[INFO] PISOStep: 4912.42 [ms]
[INFO] MatrixAssemblyPI: 247.336 [ms]
[INFO] AdjustPhi: 11.17 [ms]
[INFO] ConstrainPressure: 0.003 [ms]
[INFO] MatrixAssemblyPII: 61.931 [ms]
GAMG:  Solving for p, Initial residual = 0.837442, Final residual = 5.39362e-05, No Iterations 48
[INFO] SolveP: 5901.24 [ms]
time step continuity errors : sum local = 2.57662e-09, global = -3.05268e-23, cumulative = 1.73155e-21
[INFO] ContinuityError: 22.767 [ms]
[INFO] CorrectBoundary: 0.734 [ms]
[INFO] PISOStep: 6336.77 [ms]
[INFO] TimeStep: 13211.5 [ms]
ExecutionTime = 26.65 s  ClockTime = 27 s

Time = 0.0003

Courant Number mean: 0.012463 max: 0.398184
[INFO] MatrixAssemblyU: 205.258 [ms]
DILUPBiCGStab:  Solving for Ux, Initial residual = 0.0521732, Final residual = 0.00482881, No Iterations 5
DILUPBiCGStab:  Solving for Uy, Initial residual = 0.219141, Final residual = 0.0239255, No Iterations 5
DILUPBiCGStab:  Solving for Uz, Initial residual = 0.844149, Final residual = 0.0745438, No Iterations 5
[INFO] MomentumPredictor: 1745.4 [ms]
[INFO] MatrixAssemblyPI: 252.84 [ms]
[INFO] AdjustPhi: 13.829 [ms]
[INFO] ConstrainPressure: 0.003 [ms]
[INFO] MatrixAssemblyPII: 60.155 [ms]
GAMG:  Solving for p, Initial residual = 0.922523, Final residual = 7.82399e-05, No Iterations 21
[INFO] SolveP: 2605.93 [ms]
time step continuity errors : sum local = 4.12521e-09, global = 1.49311e-22, cumulative = 1.88087e-21
[INFO] ContinuityError: 25.496 [ms]
[INFO] CorrectBoundary: 0.884 [ms]
[INFO] PISOStep: 3048.11 [ms]
[INFO] MatrixAssemblyPI: 243.229 [ms]
[INFO] AdjustPhi: 12.862 [ms]
[INFO] ConstrainPressure: 0.003 [ms]
[INFO] MatrixAssemblyPII: 60.772 [ms]
GAMG:  Solving for p, Initial residual = 0.889936, Final residual = 9.16079e-05, No Iterations 27
[INFO] SolveP: 3344.88 [ms]
time step continuity errors : sum local = 4.77851e-09, global = 3.31795e-22, cumulative = 2.21266e-21
[INFO] ContinuityError: 26.141 [ms]
[INFO] CorrectBoundary: 1.734 [ms]
[INFO] PISOStep: 3775.55 [ms]
[INFO] TimeStep: 8802.53 [ms]
ExecutionTime = 35.38 s  ClockTime = 36 s

Time = 0.0004

Courant Number mean: 0.0151952 max: 0.38007
[INFO] MatrixAssemblyU: 198.48 [ms]
DILUPBiCGStab:  Solving for Ux, Initial residual = 0.0375505, Final residual = 0.00388827, No Iterations 5
DILUPBiCGStab:  Solving for Uy, Initial residual = 0.167496, Final residual = 0.018977, No Iterations 5
DILUPBiCGStab:  Solving for Uz, Initial residual = 0.713629, Final residual = 0.0533733, No Iterations 5
[INFO] MomentumPredictor: 1729.58 [ms]
[INFO] MatrixAssemblyPI: 250.714 [ms]
[INFO] AdjustPhi: 23.075 [ms]
[INFO] ConstrainPressure: 0.003 [ms]
[INFO] MatrixAssemblyPII: 60.902 [ms]
GAMG:  Solving for p, Initial residual = 0.906671, Final residual = 7.71733e-05, No Iterations 34
[INFO] SolveP: 4429.56 [ms]
time step continuity errors : sum local = 4.52347e-09, global = 1.6372e-22, cumulative = 2.37638e-21
[INFO] ContinuityError: 26.05 [ms]
[INFO] CorrectBoundary: 1.019 [ms]
[INFO] PISOStep: 4883.31 [ms]
[INFO] MatrixAssemblyPI: 244.677 [ms]
[INFO] AdjustPhi: 11.564 [ms]
[INFO] ConstrainPressure: 0.003 [ms]
[INFO] MatrixAssemblyPII: 61.422 [ms]
GAMG:  Solving for p, Initial residual = 0.846515, Final residual = 8.75695e-05, No Iterations 25
[INFO] SolveP: 3112.18 [ms]
time step continuity errors : sum local = 5.21756e-09, global = 3.88904e-22, cumulative = 2.76529e-21
[INFO] ContinuityError: 26.845 [ms]
[INFO] CorrectBoundary: 0.501 [ms]
[INFO] PISOStep: 3544.82 [ms]
[INFO] TimeStep: 10381.2 [ms]
ExecutionTime = 45.7 s  ClockTime = 46 s

Time = 0.0005

Courant Number mean: 0.0174872 max: 0.414618
[INFO] MatrixAssemblyU: 200.288 [ms]
DILUPBiCGStab:  Solving for Ux, Initial residual = 0.031625, Final residual = 0.00341431, No Iterations 5
DILUPBiCGStab:  Solving for Uy, Initial residual = 0.128331, Final residual = 0.0161755, No Iterations 5
DILUPBiCGStab:  Solving for Uz, Initial residual = 0.646877, Final residual = 0.0450338, No Iterations 5
[INFO] MomentumPredictor: 1783.63 [ms]
[INFO] MatrixAssemblyPI: 248.771 [ms]
[INFO] AdjustPhi: 25.932 [ms]
[INFO] ConstrainPressure: 0.003 [ms]
[INFO] MatrixAssemblyPII: 59.828 [ms]
GAMG:  Solving for p, Initial residual = 0.92654, Final residual = 7.29802e-05, No Iterations 21
[INFO] SolveP: 2651.12 [ms]
time step continuity errors : sum local = 4.40835e-09, global = 4.00056e-22, cumulative = 3.16534e-21
[INFO] ContinuityError: 21.502 [ms]
[INFO] CorrectBoundary: 1.096 [ms]
[INFO] PISOStep: 3104.45 [ms]
[INFO] MatrixAssemblyPI: 244.542 [ms]
[INFO] AdjustPhi: 9.339 [ms]
[INFO] ConstrainPressure: 0.006 [ms]
[INFO] MatrixAssemblyPII: 60.798 [ms]
GAMG:  Solving for p, Initial residual = 0.887224, Final residual = 7.63004e-05, No Iterations 17
[INFO] SolveP: 2110.03 [ms]
time step continuity errors : sum local = 4.55328e-09, global = 2.51349e-22, cumulative = 3.41669e-21
[INFO] ContinuityError: 27.484 [ms]
[INFO] CorrectBoundary: 1.081 [ms]
[INFO] PISOStep: 2539.38 [ms]
[INFO] TimeStep: 7654.06 [ms]
ExecutionTime = 53.3 s  ClockTime = 54 s

Time = 0.0006

Courant Number mean: 0.0193089 max: 0.384995
[INFO] MatrixAssemblyU: 198.211 [ms]
DILUPBiCGStab:  Solving for Ux, Initial residual = 0.027133, Final residual = 0.00318863, No Iterations 5
DILUPBiCGStab:  Solving for Uy, Initial residual = 0.111753, Final residual = 0.0129879, No Iterations 5
DILUPBiCGStab:  Solving for Uz, Initial residual = 0.582061, Final residual = 0.0393553, No Iterations 5
[INFO] MomentumPredictor: 1739.1 [ms]
[INFO] MatrixAssemblyPI: 252.492 [ms]
[INFO] AdjustPhi: 12.703 [ms]
[INFO] ConstrainPressure: 0.003 [ms]
[INFO] MatrixAssemblyPII: 60.551 [ms]
GAMG:  Solving for p, Initial residual = 0.911644, Final residual = 8.92409e-05, No Iterations 24
[INFO] SolveP: 3002.78 [ms]
time step continuity errors : sum local = 5.66508e-09, global = 1.51064e-23, cumulative = 3.4318e-21
[INFO] ContinuityError: 26.739 [ms]
[INFO] CorrectBoundary: 1.174 [ms]
[INFO] PISOStep: 3444.86 [ms]
[INFO] MatrixAssemblyPI: 243.367 [ms]
[INFO] AdjustPhi: 12.397 [ms]
[INFO] ConstrainPressure: 0.003 [ms]
[INFO] MatrixAssemblyPII: 60.42 [ms]
GAMG:  Solving for p, Initial residual = 0.848278, Final residual = 8.72484e-05, No Iterations 25
[INFO] SolveP: 3057.99 [ms]
time step continuity errors : sum local = 5.62394e-09, global = 3.8694e-22, cumulative = 3.81874e-21
[INFO] ContinuityError: 21.306 [ms]
[INFO] CorrectBoundary: 0.539 [ms]
[INFO] PISOStep: 3484.61 [ms]
[INFO] TimeStep: 8891.83 [ms]
ExecutionTime = 62.13 s  ClockTime = 63 s

Time = 0.0007

Courant Number mean: 0.0209335 max: 0.426423
[INFO] MatrixAssemblyU: 200.967 [ms]
DILUPBiCGStab:  Solving for Ux, Initial residual = 0.0247157, Final residual = 0.00295103, No Iterations 5
DILUPBiCGStab:  Solving for Uy, Initial residual = 0.100904, Final residual = 0.0118607, No Iterations 5
DILUPBiCGStab:  Solving for Uz, Initial residual = 0.568332, Final residual = 0.0372039, No Iterations 5
[INFO] MomentumPredictor: 1703.28 [ms]
[INFO] MatrixAssemblyPI: 250.328 [ms]
[INFO] AdjustPhi: 22.663 [ms]
[INFO] ConstrainPressure: 0.003 [ms]
[INFO] MatrixAssemblyPII: 61.255 [ms]
GAMG:  Solving for p, Initial residual = 0.928646, Final residual = 9.04137e-05, No Iterations 29
[INFO] SolveP: 3600.76 [ms]
time step continuity errors : sum local = 5.8152e-09, global = 1.03722e-21, cumulative = 4.85596e-21
[INFO] ContinuityError: 24.766 [ms]
[INFO] CorrectBoundary: 0.898 [ms]
[INFO] PISOStep: 4046.78 [ms]
[INFO] MatrixAssemblyPI: 240.429 [ms]
[INFO] AdjustPhi: 17.283 [ms]
[INFO] ConstrainPressure: 0.003 [ms]
[INFO] MatrixAssemblyPII: 60.525 [ms]
GAMG:  Solving for p, Initial residual = 0.883127, Final residual = 9.856e-05, No Iterations 25
[INFO] SolveP: 3059.73 [ms]
time step continuity errors : sum local = 6.27524e-09, global = 1.73708e-22, cumulative = 5.02967e-21
[INFO] ContinuityError: 25.871 [ms]
[INFO] CorrectBoundary: 1.772 [ms]
[INFO] PISOStep: 3493.12 [ms]
[INFO] TimeStep: 9469.47 [ms]
ExecutionTime = 71.54 s  ClockTime = 72 s

Time = 0.0008

Courant Number mean: 0.022322 max: 0.387302
[INFO] MatrixAssemblyU: 201.656 [ms]
DILUPBiCGStab:  Solving for Ux, Initial residual = 0.0227653, Final residual = 0.00281106, No Iterations 5
DILUPBiCGStab:  Solving for Uy, Initial residual = 0.0915013, Final residual = 0.0102522, No Iterations 5
DILUPBiCGStab:  Solving for Uz, Initial residual = 0.538702, Final residual = 0.0343431, No Iterations 5
[INFO] MomentumPredictor: 1694.47 [ms]
[INFO] MatrixAssemblyPI: 249.264 [ms]
[INFO] AdjustPhi: 13.358 [ms]
[INFO] ConstrainPressure: 0.002 [ms]
[INFO] MatrixAssemblyPII: 60.302 [ms]
GAMG:  Solving for p, Initial residual = 0.91411, Final residual = 9.84413e-05, No Iterations 27
[INFO] SolveP: 3353.67 [ms]
time step continuity errors : sum local = 6.57701e-09, global = 7.45497e-22, cumulative = 5.77516e-21
[INFO] ContinuityError: 20.169 [ms]
[INFO] CorrectBoundary: 0.902 [ms]
[INFO] PISOStep: 3789.07 [ms]
[INFO] MatrixAssemblyPI: 245.105 [ms]
[INFO] AdjustPhi: 20.81 [ms]
[INFO] ConstrainPressure: 0.003 [ms]
[INFO] MatrixAssemblyPII: 60.447 [ms]
GAMG:  Solving for p, Initial residual = 0.847827, Final residual = 9.35163e-05, No Iterations 32
[INFO] SolveP: 3906.73 [ms]
time step continuity errors : sum local = 6.33576e-09, global = 2.78739e-22, cumulative = 6.0539e-21
[INFO] ContinuityError: 24.474 [ms]
[INFO] CorrectBoundary: 0.382 [ms]
[INFO] PISOStep: 4345.16 [ms]
[INFO] TimeStep: 10057.1 [ms]
ExecutionTime = 81.54 s  ClockTime = 82 s

Time = 0.0009

Courant Number mean: 0.0236128 max: 0.438814
[INFO] MatrixAssemblyU: 199.873 [ms]
DILUPBiCGStab:  Solving for Ux, Initial residual = 0.0213951, Final residual = 0.00263218, No Iterations 5
DILUPBiCGStab:  Solving for Uy, Initial residual = 0.0883993, Final residual = 0.00969965, No Iterations 5
DILUPBiCGStab:  Solving for Uz, Initial residual = 0.546125, Final residual = 0.0356803, No Iterations 5
[INFO] MomentumPredictor: 1700.69 [ms]
[INFO] MatrixAssemblyPI: 249.919 [ms]
[INFO] AdjustPhi: 13.587 [ms]
[INFO] ConstrainPressure: 0.003 [ms]
[INFO] MatrixAssemblyPII: 60.109 [ms]
GAMG:  Solving for p, Initial residual = 0.928925, Final residual = 9.94532e-05, No Iterations 34
[INFO] SolveP: 4202.27 [ms]
time step continuity errors : sum local = 6.73654e-09, global = 1.4713e-22, cumulative = 6.20103e-21
[INFO] ContinuityError: 24.595 [ms]
[INFO] CorrectBoundary: 2.368 [ms]
[INFO] PISOStep: 4641.07 [ms]
[INFO] MatrixAssemblyPI: 243.486 [ms]
[INFO] AdjustPhi: 10.399 [ms]
[INFO] ConstrainPressure: 0.003 [ms]
[INFO] MatrixAssemblyPII: 60.503 [ms]
GAMG:  Solving for p, Initial residual = 0.879337, Final residual = 9.79313e-05, No Iterations 18
[INFO] SolveP: 2220.68 [ms]
time step continuity errors : sum local = 6.57441e-09, global = 3.60397e-22, cumulative = 6.56143e-21
[INFO] ContinuityError: 23.477 [ms]
[INFO] CorrectBoundary: 0.617 [ms]
[INFO] PISOStep: 2646.3 [ms]
[INFO] TimeStep: 9212.97 [ms]
ExecutionTime = 90.69 s  ClockTime = 92 s

Time = 0.001

Courant Number mean: 0.024749 max: 0.391213
[INFO] MatrixAssemblyU: 199.412 [ms]
DILUPBiCGStab:  Solving for Ux, Initial residual = 0.0204435, Final residual = 0.0025208, No Iterations 5
DILUPBiCGStab:  Solving for Uy, Initial residual = 0.0812488, Final residual = 0.00854851, No Iterations 5
DILUPBiCGStab:  Solving for Uz, Initial residual = 0.526846, Final residual = 0.032085, No Iterations 5
[INFO] MomentumPredictor: 1699.88 [ms]
[INFO] MatrixAssemblyPI: 248.911 [ms]
[INFO] AdjustPhi: 13.071 [ms]
[INFO] ConstrainPressure: 0.004 [ms]
[INFO] MatrixAssemblyPII: 60.759 [ms]
GAMG:  Solving for p, Initial residual = 0.917064, Final residual = 7.43822e-05, No Iterations 33
[INFO] SolveP: 4114.62 [ms]
time step continuity errors : sum local = 5.3024e-09, global = 7.69571e-22, cumulative = 7.331e-21
[INFO] ContinuityError: 20.764 [ms]
[INFO] CorrectBoundary: 0.931 [ms]
[INFO] PISOStep: 4549.36 [ms]
[INFO] MatrixAssemblyPI: 242.502 [ms]
[INFO] AdjustPhi: 22.437 [ms]
[INFO] ConstrainPressure: 0.004 [ms]
[INFO] MatrixAssemblyPII: 60.45 [ms]
GAMG:  Solving for p, Initial residual = 0.847752, Final residual = 7.16914e-05, No Iterations 26
[INFO] SolveP: 3188.18 [ms]
time step continuity errors : sum local = 5.17419e-09, global = 6.44725e-22, cumulative = 7.97572e-21
[INFO] ContinuityError: 24.238 [ms]
[INFO] CorrectBoundary: 0.956 [ms]
[INFO] PISOStep: 3626.08 [ms]
[INFO] TimeStep: 10098.7 [ms]
ExecutionTime = 100.73 s  ClockTime = 102 s

Time = 0.0011

Courant Number mean: 0.0258363 max: 0.453351
[INFO] MatrixAssemblyU: 199.772 [ms]
DILUPBiCGStab:  Solving for Ux, Initial residual = 0.0195076, Final residual = 0.00236057, No Iterations 5
DILUPBiCGStab:  Solving for Uy, Initial residual = 0.0797954, Final residual = 0.00801534, No Iterations 5
DILUPBiCGStab:  Solving for Uz, Initial residual = 0.525797, Final residual = 0.0289666, No Iterations 5
[INFO] MomentumPredictor: 1693.19 [ms]
[INFO] MatrixAssemblyPI: 250.128 [ms]
[INFO] AdjustPhi: 14.114 [ms]
[INFO] ConstrainPressure: 0.003 [ms]
[INFO] MatrixAssemblyPII: 60.658 [ms]
GAMG:  Solving for p, Initial residual = 0.932126, Final residual = 6.13386e-05, No Iterations 30
[INFO] SolveP: 3707.65 [ms]
time step continuity errors : sum local = 4.49113e-09, global = 1.37787e-21, cumulative = 9.35359e-21
[INFO] ContinuityError: 23.982 [ms]
[INFO] CorrectBoundary: 0.784 [ms]
[INFO] PISOStep: 4152.85 [ms]
[INFO] MatrixAssemblyPI: 238.713 [ms]
[INFO] AdjustPhi: 24.53 [ms]
[INFO] ConstrainPressure: 0.003 [ms]
[INFO] MatrixAssemblyPII: 59.356 [ms]
GAMG:  Solving for p, Initial residual = 0.877073, Final residual = 8.85931e-05, No Iterations 25
[INFO] SolveP: 3079.74 [ms]
time step continuity errors : sum local = 6.44245e-09, global = 3.08419e-22, cumulative = 9.66201e-21
[INFO] ContinuityError: 23.033 [ms]
[INFO] CorrectBoundary: 1.476 [ms]
[INFO] PISOStep: 3516.37 [ms]
[INFO] TimeStep: 9585.49 [ms]
ExecutionTime = 110.25 s  ClockTime = 111 s

Time = 0.0012

Courant Number mean: 0.0268056 max: 0.395728
[INFO] MatrixAssemblyU: 199.405 [ms]
DILUPBiCGStab:  Solving for Ux, Initial residual = 0.0191428, Final residual = 0.00230215, No Iterations 5
DILUPBiCGStab:  Solving for Uy, Initial residual = 0.0740042, Final residual = 0.00718718, No Iterations 5
DILUPBiCGStab:  Solving for Uz, Initial residual = 0.51955, Final residual = 0.0284327, No Iterations 5
[INFO] MomentumPredictor: 1690.32 [ms]
[INFO] MatrixAssemblyPI: 250.676 [ms]
[INFO] AdjustPhi: 13.572 [ms]
[INFO] ConstrainPressure: 0.003 [ms]
[INFO] MatrixAssemblyPII: 60.303 [ms]
GAMG:  Solving for p, Initial residual = 0.922061, Final residual = 9.70479e-05, No Iterations 25
[INFO] SolveP: 3074.72 [ms]
time step continuity errors : sum local = 7.53429e-09, global = 1.25773e-22, cumulative = 9.78779e-21
[INFO] ContinuityError: 23.58 [ms]
[INFO] CorrectBoundary: 1.307 [ms]
[INFO] PISOStep: 3511.49 [ms]
[INFO] MatrixAssemblyPI: 243.513 [ms]
[INFO] AdjustPhi: 12.296 [ms]
[INFO] ConstrainPressure: 0.004 [ms]
[INFO] MatrixAssemblyPII: 60.538 [ms]
GAMG:  Solving for p, Initial residual = 0.85061, Final residual = 7.46699e-05, No Iterations 23
[INFO] SolveP: 2883.72 [ms]
time step continuity errors : sum local = 5.86817e-09, global = 3.40985e-22, cumulative = 1.01288e-20
[INFO] ContinuityError: 24.03 [ms]
[INFO] CorrectBoundary: 1.634 [ms]
[INFO] PISOStep: 3311.54 [ms]
[INFO] TimeStep: 8736.44 [ms]
ExecutionTime = 118.93 s  ClockTime = 120 s

Time = 0.0013

Courant Number mean: 0.0277546 max: 0.470738
[INFO] MatrixAssemblyU: 207.465 [ms]
DILUPBiCGStab:  Solving for Ux, Initial residual = 0.0184457, Final residual = 0.00214329, No Iterations 5
DILUPBiCGStab:  Solving for Uy, Initial residual = 0.0755851, Final residual = 0.00713003, No Iterations 5
DILUPBiCGStab:  Solving for Uz, Initial residual = 0.534272, Final residual = 0.0294305, No Iterations 5
[INFO] MomentumPredictor: 1677.39 [ms]
[INFO] MatrixAssemblyPI: 250.73 [ms]
[INFO] AdjustPhi: 11.36 [ms]
[INFO] ConstrainPressure: 0.003 [ms]
[INFO] MatrixAssemblyPII: 60.989 [ms]
GAMG:  Solving for p, Initial residual = 0.936011, Final residual = 6.2274e-05, No Iterations 31
[INFO] SolveP: 3798.31 [ms]
time step continuity errors : sum local = 5.00883e-09, global = 6.25175e-22, cumulative = 1.07539e-20
[INFO] ContinuityError: 24.061 [ms]
[INFO] CorrectBoundary: 1.488 [ms]
[INFO] PISOStep: 4235.04 [ms]
[INFO] MatrixAssemblyPI: 245.232 [ms]
[INFO] AdjustPhi: 11.645 [ms]
[INFO] ConstrainPressure: 0.003 [ms]
[INFO] MatrixAssemblyPII: 60.127 [ms]
GAMG:  Solving for p, Initial residual = 0.877028, Final residual = 9.65961e-05, No Iterations 24
[INFO] SolveP: 2990.96 [ms]
time step continuity errors : sum local = 7.71641e-09, global = 7.07136e-22, cumulative = 1.14611e-20
[INFO] ContinuityError: 24.003 [ms]
[INFO] CorrectBoundary: 0.405 [ms]
[INFO] PISOStep: 3423.84 [ms]
[INFO] TimeStep: 9569.82 [ms]
ExecutionTime = 128.45 s  ClockTime = 130 s

Time = 0.0014

Courant Number mean: 0.0286049 max: 0.400918
[INFO] MatrixAssemblyU: 200.56 [ms]
DILUPBiCGStab:  Solving for Ux, Initial residual = 0.0184403, Final residual = 0.00212335, No Iterations 5
DILUPBiCGStab:  Solving for Uy, Initial residual = 0.0719572, Final residual = 0.00655032, No Iterations 5
DILUPBiCGStab:  Solving for Uz, Initial residual = 0.532006, Final residual = 0.0284367, No Iterations 5
[INFO] MomentumPredictor: 1681.71 [ms]
[INFO] MatrixAssemblyPI: 248.97 [ms]
[INFO] AdjustPhi: 15.507 [ms]
[INFO] ConstrainPressure: 0.002 [ms]
[INFO] MatrixAssemblyPII: 60.395 [ms]
GAMG:  Solving for p, Initial residual = 0.92745, Final residual = 9.74269e-05, No Iterations 24
[INFO] SolveP: 2983.48 [ms]
time step continuity errors : sum local = 8.31136e-09, global = 3.90621e-22, cumulative = 1.18517e-20
[INFO] ContinuityError: 23.045 [ms]
[INFO] CorrectBoundary: 0.587 [ms]
[INFO] PISOStep: 3419.02 [ms]
[INFO] MatrixAssemblyPI: 243.492 [ms]
[INFO] AdjustPhi: 18.208 [ms]
[INFO] ConstrainPressure: 0.004 [ms]
[INFO] MatrixAssemblyPII: 60.318 [ms]
GAMG:  Solving for p, Initial residual = 0.854422, Final residual = 6.4798e-05, No Iterations 19
[INFO] SolveP: 2348.95 [ms]
time step continuity errors : sum local = 5.57771e-09, global = -4.27135e-23, cumulative = 1.1809e-20
[INFO] ContinuityError: 25.422 [ms]
[INFO] CorrectBoundary: 1.003 [ms]
[INFO] PISOStep: 2783.65 [ms]
[INFO] TimeStep: 8109.67 [ms]
ExecutionTime = 136.51 s  ClockTime = 138 s

Time = 0.0015

Courant Number mean: 0.0294529 max: 0.492087
[INFO] MatrixAssemblyU: 200.156 [ms]
DILUPBiCGStab:  Solving for Ux, Initial residual = 0.0179801, Final residual = 0.00197887, No Iterations 5
DILUPBiCGStab:  Solving for Uy, Initial residual = 0.073991, Final residual = 0.00649554, No Iterations 5
DILUPBiCGStab:  Solving for Uz, Initial residual = 0.545936, Final residual = 0.0287173, No Iterations 5
[INFO] MomentumPredictor: 1740.98 [ms]
[INFO] MatrixAssemblyPI: 248.676 [ms]
[INFO] AdjustPhi: 16.443 [ms]
[INFO] ConstrainPressure: 0.004 [ms]
[INFO] MatrixAssemblyPII: 60.551 [ms]
GAMG:  Solving for p, Initial residual = 0.939622, Final residual = 8.87979e-05, No Iterations 18
[INFO] SolveP: 2273.9 [ms]
time step continuity errors : sum local = 7.85245e-09, global = 7.11448e-22, cumulative = 1.25204e-20
[INFO] ContinuityError: 25.29 [ms]
[INFO] CorrectBoundary: 1.717 [ms]
[INFO] PISOStep: 2723.8 [ms]
[INFO] MatrixAssemblyPI: 242.568 [ms]
[INFO] AdjustPhi: 12.889 [ms]
[INFO] ConstrainPressure: 0.002 [ms]
[INFO] MatrixAssemblyPII: 60.453 [ms]
GAMG:  Solving for p, Initial residual = 0.877141, Final residual = 9.82472e-05, No Iterations 26
[INFO] SolveP: 3175.19 [ms]
time step continuity errors : sum local = 8.65019e-09, global = 6.04271e-22, cumulative = 1.31247e-20
[INFO] ContinuityError: 24.519 [ms]
[INFO] CorrectBoundary: 1.408 [ms]
[INFO] PISOStep: 3603.04 [ms]
[INFO] TimeStep: 8295.88 [ms]
ExecutionTime = 144.75 s  ClockTime = 146 s

Time = 0.0016

Courant Number mean: 0.0302129 max: 0.406997
[INFO] MatrixAssemblyU: 200.065 [ms]
DILUPBiCGStab:  Solving for Ux, Initial residual = 0.0182173, Final residual = 0.00198306, No Iterations 5
DILUPBiCGStab:  Solving for Uy, Initial residual = 0.0716425, Final residual = 0.00610567, No Iterations 5
DILUPBiCGStab:  Solving for Uz, Initial residual = 0.54841, Final residual = 0.0290669, No Iterations 5
[INFO] MomentumPredictor: 1705.61 [ms]
[INFO] MatrixAssemblyPI: 249.75 [ms]
[INFO] AdjustPhi: 22.055 [ms]
[INFO] ConstrainPressure: 0.003 [ms]
[INFO] MatrixAssemblyPII: 60.055 [ms]
GAMG:  Solving for p, Initial residual = 0.932543, Final residual = 7.9651e-05, No Iterations 22
[INFO] SolveP: 2703.02 [ms]
time step continuity errors : sum local = 7.48707e-09, global = 6.95209e-22, cumulative = 1.38199e-20
[INFO] ContinuityError: 20.269 [ms]
[INFO] CorrectBoundary: 1.095 [ms]
[INFO] PISOStep: 3150.18 [ms]
[INFO] MatrixAssemblyPI: 243.142 [ms]
[INFO] AdjustPhi: 10.336 [ms]
[INFO] ConstrainPressure: 0.003 [ms]
[INFO] MatrixAssemblyPII: 60.723 [ms]
GAMG:  Solving for p, Initial residual = 0.858493, Final residual = 6.86656e-05, No Iterations 41
[INFO] SolveP: 4980.04 [ms]
time step continuity errors : sum local = 6.51196e-09, global = 6.43649e-22, cumulative = 1.44636e-20
[INFO] ContinuityError: 25.22 [ms]
[INFO] CorrectBoundary: 0.665 [ms]
[INFO] PISOStep: 5409.54 [ms]
[INFO] TimeStep: 10491.5 [ms]
ExecutionTime = 155.19 s  ClockTime = 157 s

Time = 0.0017

Courant Number mean: 0.0309845 max: 0.517978
[INFO] MatrixAssemblyU: 201.39 [ms]
DILUPBiCGStab:  Solving for Ux, Initial residual = 0.0179385, Final residual = 0.00184694, No Iterations 5
DILUPBiCGStab:  Solving for Uy, Initial residual = 0.0733415, Final residual = 0.00591623, No Iterations 5
DILUPBiCGStab:  Solving for Uz, Initial residual = 0.558147, Final residual = 0.0275151, No Iterations 5
[INFO] MomentumPredictor: 1725.6 [ms]
[INFO] MatrixAssemblyPI: 248.49 [ms]
[INFO] AdjustPhi: 21.786 [ms]
[INFO] ConstrainPressure: 0.004 [ms]
[INFO] MatrixAssemblyPII: 59.854 [ms]
GAMG:  Solving for p, Initial residual = 0.943079, Final residual = 9.6449e-05, No Iterations 24
[INFO] SolveP: 2921.56 [ms]
time step continuity errors : sum local = 9.42513e-09, global = 6.10046e-23, cumulative = 1.45246e-20
[INFO] ContinuityError: 24.463 [ms]
[INFO] CorrectBoundary: 0.938 [ms]
[INFO] PISOStep: 3366.59 [ms]
[INFO] MatrixAssemblyPI: 242.811 [ms]
[INFO] AdjustPhi: 12.757 [ms]
[INFO] ConstrainPressure: 0.003 [ms]
[INFO] MatrixAssemblyPII: 60.42 [ms]
GAMG:  Solving for p, Initial residual = 0.877711, Final residual = 9.39418e-05, No Iterations 35
[INFO] SolveP: 4247.65 [ms]
time step continuity errors : sum local = 9.15034e-09, global = 1.20767e-21, cumulative = 1.57322e-20
[INFO] ContinuityError: 26.247 [ms]
[INFO] CorrectBoundary: 0.462 [ms]
[INFO] PISOStep: 4676.65 [ms]
[INFO] TimeStep: 9999.45 [ms]
ExecutionTime = 165.13 s  ClockTime = 167 s

Time = 0.0018

Courant Number mean: 0.0316732 max: 0.414126
[INFO] MatrixAssemblyU: 201.345 [ms]
DILUPBiCGStab:  Solving for Ux, Initial residual = 0.0182982, Final residual = 0.00185169, No Iterations 5
DILUPBiCGStab:  Solving for Uy, Initial residual = 0.0726828, Final residual = 0.00582596, No Iterations 5
DILUPBiCGStab:  Solving for Uz, Initial residual = 0.563192, Final residual = 0.0285233, No Iterations 5
[INFO] MomentumPredictor: 1731.31 [ms]
[INFO] MatrixAssemblyPI: 253.801 [ms]
[INFO] AdjustPhi: 17.062 [ms]
[INFO] ConstrainPressure: 0.003 [ms]
[INFO] MatrixAssemblyPII: 60.222 [ms]
GAMG:  Solving for p, Initial residual = 0.938263, Final residual = 9.99007e-05, No Iterations 34
[INFO] SolveP: 4204.65 [ms]
time step continuity errors : sum local = 1.03654e-08, global = 5.79047e-22, cumulative = 1.63113e-20
[INFO] ContinuityError: 24.241 [ms]
[INFO] CorrectBoundary: 1.958 [ms]
[INFO] PISOStep: 4648.2 [ms]
[INFO] MatrixAssemblyPI: 243.115 [ms]
[INFO] AdjustPhi: 12.101 [ms]
[INFO] ConstrainPressure: 0.003 [ms]
[INFO] MatrixAssemblyPII: 60.287 [ms]
GAMG:  Solving for p, Initial residual = 0.863301, Final residual = 9.94802e-05, No Iterations 22
[INFO] SolveP: 2817.84 [ms]
time step continuity errors : sum local = 1.04042e-08, global = 9.22885e-22, cumulative = 1.72342e-20
[INFO] ContinuityError: 24.657 [ms]
[INFO] CorrectBoundary: 0.469 [ms]
[INFO] PISOStep: 3243.81 [ms]
[INFO] TimeStep: 9851.27 [ms]
ExecutionTime = 174.92 s  ClockTime = 176 s

Time = 0.0019

Courant Number mean: 0.0323854 max: 0.549499
[INFO] MatrixAssemblyU: 200.237 [ms]
DILUPBiCGStab:  Solving for Ux, Initial residual = 0.0183164, Final residual = 0.0017551, No Iterations 5
DILUPBiCGStab:  Solving for Uy, Initial residual = 0.0765758, Final residual = 0.00602412, No Iterations 5
DILUPBiCGStab:  Solving for Uz, Initial residual = 0.578445, Final residual = 0.0294839, No Iterations 5
[INFO] MomentumPredictor: 1724.28 [ms]
[INFO] MatrixAssemblyPI: 248.948 [ms]
[INFO] AdjustPhi: 23.286 [ms]
[INFO] ConstrainPressure: 0.003 [ms]
[INFO] MatrixAssemblyPII: 59.957 [ms]
GAMG:  Solving for p, Initial residual = 0.947044, Final residual = 7.90599e-05, No Iterations 37
[INFO] SolveP: 4542.53 [ms]
time step continuity errors : sum local = 8.57389e-09, global = 4.90063e-22, cumulative = 1.77242e-20
[INFO] ContinuityError: 24.639 [ms]
[INFO] CorrectBoundary: 3.228 [ms]
[INFO] PISOStep: 4989.98 [ms]
[INFO] MatrixAssemblyPI: 243.613 [ms]
[INFO] AdjustPhi: 11.424 [ms]
[INFO] ConstrainPressure: 0.003 [ms]
[INFO] MatrixAssemblyPII: 60.362 [ms]
GAMG:  Solving for p, Initial residual = 0.879308, Final residual = 5.55836e-05, No Iterations 31
[INFO] SolveP: 3815.17 [ms]
time step continuity errors : sum local = 6.02061e-09, global = 7.31791e-22, cumulative = 1.8456e-20
[INFO] ContinuityError: 21.324 [ms]
[INFO] CorrectBoundary: 0.491 [ms]
[INFO] PISOStep: 4243.19 [ms]
[INFO] TimeStep: 11184.9 [ms]
ExecutionTime = 186.03 s  ClockTime = 188 s

Time = 0.002

Courant Number mean: 0.033016 max: 0.422767
[INFO] MatrixAssemblyU: 201.586 [ms]
DILUPBiCGStab:  Solving for Ux, Initial residual = 0.0188184, Final residual = 0.00175946, No Iterations 5
DILUPBiCGStab:  Solving for Uy, Initial residual = 0.0743688, Final residual = 0.00534871, No Iterations 5
DILUPBiCGStab:  Solving for Uz, Initial residual = 0.578383, Final residual = 0.027321, No Iterations 5
[INFO] MomentumPredictor: 1716.59 [ms]
[INFO] MatrixAssemblyPI: 250.295 [ms]
[INFO] AdjustPhi: 12.466 [ms]
[INFO] ConstrainPressure: 0.003 [ms]
[INFO] MatrixAssemblyPII: 60.509 [ms]
GAMG:  Solving for p, Initial residual = 0.943719, Final residual = 9.99747e-05, No Iterations 28
[INFO] SolveP: 3422.27 [ms]
time step continuity errors : sum local = 1.14695e-08, global = -3.87638e-23, cumulative = 1.84173e-20
[INFO] ContinuityError: 22.825 [ms]
[INFO] CorrectBoundary: 2.206 [ms]
[INFO] PISOStep: 3856.91 [ms]
[INFO] MatrixAssemblyPI: 241.505 [ms]
[INFO] AdjustPhi: 11.613 [ms]
[INFO] ConstrainPressure: 0.003 [ms]
[INFO] MatrixAssemblyPII: 60.141 [ms]
GAMG:  Solving for p, Initial residual = 0.867772, Final residual = 6.40112e-05, No Iterations 26
[INFO] SolveP: 3183.74 [ms]
time step continuity errors : sum local = 7.40286e-09, global = 4.82151e-22, cumulative = 1.88994e-20
[INFO] ContinuityError: 23.431 [ms]
[INFO] CorrectBoundary: 0.458 [ms]
[INFO] PISOStep: 3608.65 [ms]
[INFO] TimeStep: 9412.09 [ms]
ExecutionTime = 195.39 s  ClockTime = 197 s

End

Finalising parallel run
