/*---------------------------------------------------------------------------*\
| =========                 |                                                 |
| \\      /  F ield         | OpenFOAM: The Open Source CFD Toolbox           |
|  \\    /   O peration     | Version:  2306                                  |
|   \\  /    A nd           | Website:  www.openfoam.com                      |
|    \\/     M anipulation  |                                                 |
\*---------------------------------------------------------------------------*/
Build  : a6e826bd55-20230630 OPENFOAM=2306 version=v2306
Arch   : "LSB;label=32;scalar=64"
Exec   : icoFoam -parallel -case /tmp/lidDrivenCavity/workspace/c96dfe73e85935d2ee28830ec3258e97/case
Date   : Dec 21 2023
Time   : 14:24:04
Host   : nla-gpu2.ianm.kit.edu
PID    : 405523
I/O    : uncollated
Case   : /tmp/lidDrivenCavity/workspace/c96dfe73e85935d2ee28830ec3258e97/case
nProcs : 16
Hosts  :
(
    (nla-gpu2.ianm.kit.edu 16)
)
Pstream initialized with:
    floatTransfer      : false
    nProcsSimpleSum    : 0
    nonBlockingExchange: 0 (tuning: 0)
    exchange algorithm : -1
    commsType          : nonBlocking
    polling iterations : 0
trapFpe: Floating point exception trapping enabled (FOAM_SIGFPE).
fileModificationChecking : Monitoring run-time modified files using timeStampMaster (fileModificationSkew 5, maxFileModificationPolls 20)
allowSystemOperations : Allowing user-supplied system call operations

// * * * * * * * * * * * * * * * * * * * * * * * * * * * * * * * * * * * * * //
Create time

--> FOAM Warning : 
    From void* Foam::dlLibraryTable::openLibrary(const Foam::fileName&, bool)
    in file db/dynamicLibrary/dlLibraryTable/dlLibraryTable.C at line 188
    Could not load "libpetscFoam.so"
libpetscFoam.so: cannot open shared object file: No such file or directory
Create mesh for time = 0


PISO: Operating solver in PISO mode

Reading transportProperties

Reading field p

Reading field U

Reading/calculating face flux field phi


Starting time loop

Time = 0.000125

Courant Number mean: 8.02505e-18 max: 4.85723e-14
[INFO] MatrixAssemblyU: 580.391 [ms]
DILUPBiCGStab:  Solving for Ux, Initial residual = 1, Final residual = 0.0215184, No Iterations 5
DILUPBiCGStab:  Solving for Uy:  solution singularity
DILUPBiCGStab:  Solving for Uz:  solution singularity
[INFO] MomentumPredictor: 2276.92 [ms]
[INFO] MatrixAssemblyPI: 590.356 [ms]
[INFO] AdjustPhi: 32.052 [ms]
[INFO] ConstrainPressure: 0.015 [ms]
[INFO] MatrixAssemblyPII: 168.984 [ms]
GAMG:  Solving for p, Initial residual = 1, Final residual = 9.07791e-05, No Iterations 74
[INFO] SolveP: 31935.9 [ms]
time step continuity errors : sum local = 2.30635e-09, global = 3.78694e-22, cumulative = 3.78694e-22
[INFO] ContinuityError: 70.644 [ms]
[INFO] CorrectBoundary: 1.88 [ms]
[INFO] PISOStep: 32984.5 [ms]
[INFO] MatrixAssemblyPI: 555.011 [ms]
[INFO] AdjustPhi: 34.066 [ms]
[INFO] ConstrainPressure: 0.005 [ms]
[INFO] MatrixAssemblyPII: 166.686 [ms]
GAMG:  Solving for p, Initial residual = 0.82208, Final residual = 9.82581e-05, No Iterations 54
[INFO] SolveP: 22606.1 [ms]
time step continuity errors : sum local = 3.01571e-09, global = 1.76551e-22, cumulative = 5.55245e-22
[INFO] ContinuityError: 68.093 [ms]
[INFO] CorrectBoundary: 1.584 [ms]
[INFO] PISOStep: 23622.2 [ms]
[INFO] TimeStep: 59534 [ms]
ExecutionTime = 61.82 s  ClockTime = 62 s

Time = 0.00025

Courant Number mean: 0.0108529 max: 0.437705
[INFO] MatrixAssemblyU: 500.958 [ms]
DILUPBiCGStab:  Solving for Ux, Initial residual = 0.108162, Final residual = 0.0134416, No Iterations 5
DILUPBiCGStab:  Solving for Uy, Initial residual = 0.484802, Final residual = 0.0521751, No Iterations 5
DILUPBiCGStab:  Solving for Uz, Initial residual = 0.989314, Final residual = 0.12082, No Iterations 5
[INFO] MomentumPredictor: 4172.13 [ms]
[INFO] MatrixAssemblyPI: 573.617 [ms]
[INFO] AdjustPhi: 30.112 [ms]
[INFO] ConstrainPressure: 0.004 [ms]
[INFO] MatrixAssemblyPII: 168.858 [ms]
GAMG:  Solving for p, Initial residual = 0.906473, Final residual = 8.19015e-05, No Iterations 38
[INFO] SolveP: 15956.6 [ms]
time step continuity errors : sum local = 5.76977e-09, global = 1.3633e-22, cumulative = 6.91575e-22
[INFO] ContinuityError: 66.873 [ms]
[INFO] CorrectBoundary: 1.639 [ms]
[INFO] PISOStep: 16984.3 [ms]
[INFO] MatrixAssemblyPI: 555.274 [ms]
[INFO] AdjustPhi: 32.498 [ms]
[INFO] ConstrainPressure: 0.005 [ms]
[INFO] MatrixAssemblyPII: 168.425 [ms]
GAMG:  Solving for p, Initial residual = 0.857728, Final residual = 9.01611e-05, No Iterations 26
[INFO] SolveP: 10981.1 [ms]
time step continuity errors : sum local = 6.48251e-09, global = 2.73021e-22, cumulative = 9.64596e-22
[INFO] ContinuityError: 67.949 [ms]
[INFO] CorrectBoundary: 1.151 [ms]
[INFO] PISOStep: 11993 [ms]
[INFO] TimeStep: 33717.6 [ms]
ExecutionTime = 95.4 s  ClockTime = 96 s

Time = 0.000375

Courant Number mean: 0.0169475 max: 0.511498
[INFO] MatrixAssemblyU: 498.218 [ms]
DILUPBiCGStab:  Solving for Ux, Initial residual = 0.0537211, Final residual = 0.00543911, No Iterations 5
DILUPBiCGStab:  Solving for Uy, Initial residual = 0.261712, Final residual = 0.0262151, No Iterations 5
DILUPBiCGStab:  Solving for Uz, Initial residual = 0.882944, Final residual = 0.10092, No Iterations 5
[INFO] MomentumPredictor: 4158.64 [ms]
[INFO] MatrixAssemblyPI: 572.598 [ms]
[INFO] AdjustPhi: 30.597 [ms]
[INFO] ConstrainPressure: 0.005 [ms]
[INFO] MatrixAssemblyPII: 167.738 [ms]
GAMG:  Solving for p, Initial residual = 0.941049, Final residual = 9.38992e-05, No Iterations 42
[INFO] SolveP: 17652.8 [ms]
time step continuity errors : sum local = 8.33868e-09, global = 6.24134e-22, cumulative = 1.58873e-21
[INFO] ContinuityError: 67.406 [ms]
[INFO] CorrectBoundary: 1.226 [ms]
[INFO] PISOStep: 18679.9 [ms]
[INFO] MatrixAssemblyPI: 558.115 [ms]
[INFO] AdjustPhi: 29.666 [ms]
[INFO] ConstrainPressure: 0.004 [ms]
[INFO] MatrixAssemblyPII: 168.528 [ms]
GAMG:  Solving for p, Initial residual = 0.908855, Final residual = 7.58554e-05, No Iterations 40
[INFO] SolveP: 16786.2 [ms]
time step continuity errors : sum local = 6.68206e-09, global = 2.6767e-22, cumulative = 1.8564e-21
[INFO] ContinuityError: 67.876 [ms]
[INFO] CorrectBoundary: 1.591 [ms]
[INFO] PISOStep: 17797.5 [ms]
[INFO] TimeStep: 41201.3 [ms]
ExecutionTime = 136.43 s  ClockTime = 137 s

Time = 0.0005

Courant Number mean: 0.0205569 max: 0.47768
[INFO] MatrixAssemblyU: 499.1 [ms]
DILUPBiCGStab:  Solving for Ux, Initial residual = 0.0416541, Final residual = 0.00503787, No Iterations 5
DILUPBiCGStab:  Solving for Uy, Initial residual = 0.214532, Final residual = 0.0242071, No Iterations 5
DILUPBiCGStab:  Solving for Uz, Initial residual = 0.827912, Final residual = 0.0910358, No Iterations 5
[INFO] MomentumPredictor: 4161.98 [ms]
[INFO] MatrixAssemblyPI: 574.026 [ms]
[INFO] AdjustPhi: 30.235 [ms]
[INFO] ConstrainPressure: 0.005 [ms]
[INFO] MatrixAssemblyPII: 167.642 [ms]
GAMG:  Solving for p, Initial residual = 0.937713, Final residual = 9.54999e-05, No Iterations 26
[INFO] SolveP: 10980.7 [ms]
time step continuity errors : sum local = 1.0341e-08, global = 5.01995e-22, cumulative = 2.3584e-21
[INFO] ContinuityError: 68.616 [ms]
[INFO] CorrectBoundary: 1.048 [ms]
[INFO] PISOStep: 12009.2 [ms]
[INFO] MatrixAssemblyPI: 557.858 [ms]
[INFO] AdjustPhi: 29.681 [ms]
[INFO] ConstrainPressure: 0.005 [ms]
[INFO] MatrixAssemblyPII: 169.748 [ms]
GAMG:  Solving for p, Initial residual = 0.880204, Final residual = 6.92453e-05, No Iterations 32
[INFO] SolveP: 13456.3 [ms]
time step continuity errors : sum local = 7.63645e-09, global = -8.51996e-23, cumulative = 2.2732e-21
[INFO] ContinuityError: 68.301 [ms]
[INFO] CorrectBoundary: 1.258 [ms]
[INFO] PISOStep: 14467.9 [ms]
[INFO] TimeStep: 31206 [ms]
ExecutionTime = 167.51 s  ClockTime = 168 s

Time = 0.000625

Courant Number mean: 0.0236334 max: 0.556166
[INFO] MatrixAssemblyU: 497.55 [ms]
DILUPBiCGStab:  Solving for Ux, Initial residual = 0.0376611, Final residual = 0.00456552, No Iterations 5
DILUPBiCGStab:  Solving for Uy, Initial residual = 0.185069, Final residual = 0.0200138, No Iterations 5
DILUPBiCGStab:  Solving for Uz, Initial residual = 0.833248, Final residual = 0.0962491, No Iterations 5
[INFO] MomentumPredictor: 4173.18 [ms]
[INFO] MatrixAssemblyPI: 573.432 [ms]
[INFO] AdjustPhi: 30.206 [ms]
[INFO] ConstrainPressure: 0.005 [ms]
[INFO] MatrixAssemblyPII: 167.886 [ms]
GAMG:  Solving for p, Initial residual = 0.954271, Final residual = 9.01422e-05, No Iterations 38
[INFO] SolveP: 15952.9 [ms]
time step continuity errors : sum local = 1.12581e-08, global = 2.32903e-22, cumulative = 2.5061e-21
[INFO] ContinuityError: 67.702 [ms]
[INFO] CorrectBoundary: 1.282 [ms]
[INFO] PISOStep: 16980.5 [ms]
[INFO] MatrixAssemblyPI: 556.743 [ms]
[INFO] AdjustPhi: 32.128 [ms]
[INFO] ConstrainPressure: 0.004 [ms]
[INFO] MatrixAssemblyPII: 168.781 [ms]
GAMG:  Solving for p, Initial residual = 0.915438, Final residual = 6.9471e-05, No Iterations 37
[INFO] SolveP: 15515.3 [ms]
time step continuity errors : sum local = 8.62438e-09, global = 8.71538e-22, cumulative = 3.37764e-21
[INFO] ContinuityError: 67.398 [ms]
[INFO] CorrectBoundary: 1.076 [ms]
[INFO] PISOStep: 16528.2 [ms]
[INFO] TimeStep: 38246.9 [ms]
ExecutionTime = 205.6 s  ClockTime = 206 s

Time = 0.00075

Courant Number mean: 0.025969 max: 0.483442
[INFO] MatrixAssemblyU: 499.994 [ms]
DILUPBiCGStab:  Solving for Ux, Initial residual = 0.0354027, Final residual = 0.00431912, No Iterations 5
DILUPBiCGStab:  Solving for Uy, Initial residual = 0.172411, Final residual = 0.0174408, No Iterations 5
DILUPBiCGStab:  Solving for Uz, Initial residual = 0.786818, Final residual = 0.0927261, No Iterations 5
[INFO] MomentumPredictor: 4154.15 [ms]
[INFO] MatrixAssemblyPI: 574.32 [ms]
[INFO] AdjustPhi: 29.392 [ms]
[INFO] ConstrainPressure: 0.005 [ms]
[INFO] MatrixAssemblyPII: 166.77 [ms]
GAMG:  Solving for p, Initial residual = 0.951294, Final residual = 4.63235e-05, No Iterations 39
[INFO] SolveP: 16361.8 [ms]
time step continuity errors : sum local = 6.68568e-09, global = 1.13841e-21, cumulative = 4.51604e-21
[INFO] ContinuityError: 68.305 [ms]
[INFO] CorrectBoundary: 1.389 [ms]
[INFO] PISOStep: 17389 [ms]
[INFO] MatrixAssemblyPI: 558.507 [ms]
[INFO] AdjustPhi: 30.5 [ms]
[INFO] ConstrainPressure: 0.005 [ms]
[INFO] MatrixAssemblyPII: 168.382 [ms]
GAMG:  Solving for p, Initial residual = 0.891502, Final residual = 5.84961e-05, No Iterations 44
[INFO] SolveP: 18466.7 [ms]
time step continuity errors : sum local = 8.60184e-09, global = 2.86049e-22, cumulative = 4.80209e-21
[INFO] ContinuityError: 67.806 [ms]
[INFO] CorrectBoundary: 0.903 [ms]
[INFO] PISOStep: 19479.2 [ms]
[INFO] TimeStep: 41589.4 [ms]
ExecutionTime = 247.02 s  ClockTime = 248 s

Time = 0.000875

Courant Number mean: 0.0281724 max: 0.612738
[INFO] MatrixAssemblyU: 498.468 [ms]
DILUPBiCGStab:  Solving for Ux, Initial residual = 0.0351592, Final residual = 0.00414896, No Iterations 5
DILUPBiCGStab:  Solving for Uy, Initial residual = 0.176623, Final residual = 0.0163473, No Iterations 5
DILUPBiCGStab:  Solving for Uz, Initial residual = 0.774181, Final residual = 0.0737801, No Iterations 5
[INFO] MomentumPredictor: 4165.86 [ms]
[INFO] MatrixAssemblyPI: 572.182 [ms]
[INFO] AdjustPhi: 30.933 [ms]
[INFO] ConstrainPressure: 0.005 [ms]
[INFO] MatrixAssemblyPII: 167.589 [ms]
GAMG:  Solving for p, Initial residual = 0.962197, Final residual = 8.34009e-05, No Iterations 34
[INFO] SolveP: 14295.8 [ms]
time step continuity errors : sum local = 1.36141e-08, global = 6.38118e-22, cumulative = 5.44021e-21
[INFO] ContinuityError: 68.102 [ms]
[INFO] CorrectBoundary: 1.142 [ms]
[INFO] PISOStep: 15323.4 [ms]
[INFO] MatrixAssemblyPI: 556.989 [ms]
[INFO] AdjustPhi: 30.805 [ms]
[INFO] ConstrainPressure: 0.004 [ms]
[INFO] MatrixAssemblyPII: 168.464 [ms]
GAMG:  Solving for p, Initial residual = 0.917755, Final residual = 9.68068e-05, No Iterations 40
[INFO] SolveP: 16771.8 [ms]
time step continuity errors : sum local = 1.5797e-08, global = 3.23686e-22, cumulative = 5.7639e-21
[INFO] ContinuityError: 68.157 [ms]
[INFO] CorrectBoundary: 1.218 [ms]
[INFO] PISOStep: 17783.5 [ms]
[INFO] TimeStep: 37838.4 [ms]
ExecutionTime = 284.7 s  ClockTime = 286 s

Time = 0.001

Courant Number mean: 0.0299154 max: 0.491651
[INFO] MatrixAssemblyU: 498.575 [ms]
DILUPBiCGStab:  Solving for Ux, Initial residual = 0.0362123, Final residual = 0.00400207, No Iterations 5
DILUPBiCGStab:  Solving for Uy, Initial residual = 0.170953, Final residual = 0.0144504, No Iterations 5
DILUPBiCGStab:  Solving for Uz, Initial residual = 0.767012, Final residual = 0.0884915, No Iterations 5
[INFO] MomentumPredictor: 4163.56 [ms]
[INFO] MatrixAssemblyPI: 571.651 [ms]
[INFO] AdjustPhi: 32.373 [ms]
[INFO] ConstrainPressure: 0.005 [ms]
[INFO] MatrixAssemblyPII: 167.465 [ms]
GAMG:  Solving for p, Initial residual = 0.960214, Final residual = 6.69214e-05, No Iterations 39
[INFO] SolveP: 16402.8 [ms]
time step continuity errors : sum local = 1.26093e-08, global = 1.41918e-21, cumulative = 7.18308e-21
[INFO] ContinuityError: 68.823 [ms]
[INFO] CorrectBoundary: 1.364 [ms]
[INFO] PISOStep: 17430.4 [ms]
[INFO] MatrixAssemblyPI: 557.628 [ms]
[INFO] AdjustPhi: 31.74 [ms]
[INFO] ConstrainPressure: 0.005 [ms]
[INFO] MatrixAssemblyPII: 168.288 [ms]
GAMG:  Solving for p, Initial residual = 0.89855, Final residual = 8.68787e-05, No Iterations 35
[INFO] SolveP: 14713.3 [ms]
time step continuity errors : sum local = 1.66194e-08, global = 5.45784e-22, cumulative = 7.72887e-21
[INFO] ContinuityError: 67.73 [ms]
[INFO] CorrectBoundary: 1.355 [ms]
[INFO] PISOStep: 15726.2 [ms]
[INFO] TimeStep: 37885.1 [ms]
ExecutionTime = 322.43 s  ClockTime = 324 s

Time = 0.001125

Courant Number mean: 0.0317262 max: 0.696761
[INFO] MatrixAssemblyU: 496.584 [ms]
DILUPBiCGStab:  Solving for Ux, Initial residual = 0.0376726, Final residual = 0.00383494, No Iterations 5
DILUPBiCGStab:  Solving for Uy, Initial residual = 0.187611, Final residual = 0.0146858, No Iterations 5
DILUPBiCGStab:  Solving for Uz, Initial residual = 0.779576, Final residual = 0.0811141, No Iterations 5
[INFO] MomentumPredictor: 4159.32 [ms]
[INFO] MatrixAssemblyPI: 572.338 [ms]
[INFO] AdjustPhi: 31.226 [ms]
[INFO] ConstrainPressure: 0.004 [ms]
[INFO] MatrixAssemblyPII: 167.875 [ms]
GAMG:  Solving for p, Initial residual = 0.968128, Final residual = 7.66008e-05, No Iterations 54
[INFO] SolveP: 22597.8 [ms]
time step continuity errors : sum local = 1.65635e-08, global = 1.46949e-21, cumulative = 9.19835e-21
[INFO] ContinuityError: 67.724 [ms]
[INFO] CorrectBoundary: 1.097 [ms]
[INFO] PISOStep: 23625.4 [ms]
[INFO] MatrixAssemblyPI: 559.364 [ms]
[INFO] AdjustPhi: 29.74 [ms]
[INFO] ConstrainPressure: 0.004 [ms]
[INFO] MatrixAssemblyPII: 168.504 [ms]
GAMG:  Solving for p, Initial residual = 0.919048, Final residual = 9.30199e-05, No Iterations 56
[INFO] SolveP: 23410.5 [ms]
time step continuity errors : sum local = 2.00799e-08, global = 7.6783e-22, cumulative = 9.96618e-21
[INFO] ContinuityError: 67.733 [ms]
[INFO] CorrectBoundary: 1.501 [ms]
[INFO] PISOStep: 24423.3 [ms]
[INFO] TimeStep: 52772.2 [ms]
ExecutionTime = 374.98 s  ClockTime = 376 s

Time = 0.00125

Courant Number mean: 0.0331352 max: 0.506934
[INFO] MatrixAssemblyU: 498.609 [ms]
DILUPBiCGStab:  Solving for Ux, Initial residual = 0.0409595, Final residual = 0.00387239, No Iterations 5
DILUPBiCGStab:  Solving for Uy, Initial residual = 0.187479, Final residual = 0.0133378, No Iterations 5
DILUPBiCGStab:  Solving for Uz, Initial residual = 0.772577, Final residual = 0.0822813, No Iterations 5
[INFO] MomentumPredictor: 4154.9 [ms]
[INFO] MatrixAssemblyPI: 574.248 [ms]
[INFO] AdjustPhi: 29.473 [ms]
[INFO] ConstrainPressure: 0.004 [ms]
[INFO] MatrixAssemblyPII: 167.428 [ms]
GAMG:  Solving for p, Initial residual = 0.967512, Final residual = 9.69437e-05, No Iterations 42
[INFO] SolveP: 17632.7 [ms]
time step continuity errors : sum local = 2.44682e-08, global = 7.90681e-22, cumulative = 1.07569e-20
[INFO] ContinuityError: 68.713 [ms]
[INFO] CorrectBoundary: 1.407 [ms]
[INFO] PISOStep: 18659.8 [ms]
[INFO] MatrixAssemblyPI: 558.429 [ms]
[INFO] AdjustPhi: 30.866 [ms]
[INFO] ConstrainPressure: 0.004 [ms]
[INFO] MatrixAssemblyPII: 168.311 [ms]
GAMG:  Solving for p, Initial residual = 0.904234, Final residual = 6.05164e-05, No Iterations 44
[INFO] SolveP: 18433.2 [ms]
time step continuity errors : sum local = 1.54486e-08, global = 1.10922e-21, cumulative = 1.18661e-20
[INFO] ContinuityError: 67.927 [ms]
[INFO] CorrectBoundary: 1.299 [ms]
[INFO] PISOStep: 19446.9 [ms]
[INFO] TimeStep: 42827.4 [ms]
ExecutionTime = 417.64 s  ClockTime = 419 s

Time = 0.001375

Courant Number mean: 0.0347421 max: 0.827111
[INFO] MatrixAssemblyU: 494.947 [ms]
DILUPBiCGStab:  Solving for Ux, Initial residual = 0.0440298, Final residual = 0.00378617, No Iterations 5
DILUPBiCGStab:  Solving for Uy, Initial residual = 0.210832, Final residual = 0.0141617, No Iterations 5
DILUPBiCGStab:  Solving for Uz, Initial residual = 0.781536, Final residual = 0.0789933, No Iterations 5
[INFO] MomentumPredictor: 4160.29 [ms]
[INFO] MatrixAssemblyPI: 570.137 [ms]
[INFO] AdjustPhi: 34.09 [ms]
[INFO] ConstrainPressure: 0.004 [ms]
[INFO] MatrixAssemblyPII: 167.673 [ms]
GAMG:  Solving for p, Initial residual = 0.973112, Final residual = 9.59102e-05, No Iterations 63
[INFO] SolveP: 26299.3 [ms]
time step continuity errors : sum local = 2.80809e-08, global = 1.27975e-21, cumulative = 1.31458e-20
[INFO] ContinuityError: 67.988 [ms]
[INFO] CorrectBoundary: 1.174 [ms]
[INFO] PISOStep: 27327.7 [ms]
[INFO] MatrixAssemblyPI: 558.318 [ms]
[INFO] AdjustPhi: 30.65 [ms]
[INFO] ConstrainPressure: 0.004 [ms]
[INFO] MatrixAssemblyPII: 168.379 [ms]
GAMG:  Solving for p, Initial residual = 0.919904, Final residual = 8.61566e-05, No Iterations 73
[INFO] SolveP: 30455.2 [ms]
time step continuity errors : sum local = 2.52227e-08, global = 8.69884e-22, cumulative = 1.40157e-20
[INFO] ContinuityError: 68.326 [ms]
[INFO] CorrectBoundary: 1.328 [ms]
[INFO] PISOStep: 31469.1 [ms]
[INFO] TimeStep: 63519.1 [ms]
ExecutionTime = 480.89 s  ClockTime = 483 s

Time = 0.0015

Courant Number mean: 0.0359375 max: 0.600651
[INFO] MatrixAssemblyU: 499.778 [ms]
DILUPBiCGStab:  Solving for Ux, Initial residual = 0.0493269, Final residual = 0.00393368, No Iterations 5
DILUPBiCGStab:  Solving for Uy, Initial residual = 0.216503, Final residual = 0.01344, No Iterations 5
DILUPBiCGStab:  Solving for Uz, Initial residual = 0.789763, Final residual = 0.086948, No Iterations 5
[INFO] MomentumPredictor: 4153.79 [ms]
[INFO] MatrixAssemblyPI: 574.061 [ms]
[INFO] AdjustPhi: 29.507 [ms]
[INFO] ConstrainPressure: 0.005 [ms]
[INFO] MatrixAssemblyPII: 167.206 [ms]
GAMG:  Solving for p, Initial residual = 0.973392, Final residual = 8.26707e-05, No Iterations 42
[INFO] SolveP: 17645.6 [ms]
time step continuity errors : sum local = 2.84042e-08, global = -1.42172e-22, cumulative = 1.38736e-20
[INFO] ContinuityError: 68.476 [ms]
[INFO] CorrectBoundary: 1.499 [ms]
[INFO] PISOStep: 18673.3 [ms]
[INFO] MatrixAssemblyPI: 558.723 [ms]
[INFO] AdjustPhi: 28.927 [ms]
[INFO] ConstrainPressure: 0.005 [ms]
[INFO] MatrixAssemblyPII: 167.512 [ms]
GAMG:  Solving for p, Initial residual = 0.909199, Final residual = 7.92049e-05, No Iterations 44
[INFO] SolveP: 18427.1 [ms]
time step continuity errors : sum local = 2.75358e-08, global = 1.07275e-21, cumulative = 1.49463e-20
[INFO] ContinuityError: 67.772 [ms]
[INFO] CorrectBoundary: 1.096 [ms]
[INFO] PISOStep: 19439.1 [ms]
[INFO] TimeStep: 42832.7 [ms]
ExecutionTime = 523.55 s  ClockTime = 526 s

Time = 0.001625

Courant Number mean: 0.0374441 max: 1.15235
[INFO] MatrixAssemblyU: 498.563 [ms]
DILUPBiCGStab:  Solving for Ux, Initial residual = 0.0544152, Final residual = 0.00399781, No Iterations 5
DILUPBiCGStab:  Solving for Uy, Initial residual = 0.244451, Final residual = 0.0144758, No Iterations 5
DILUPBiCGStab:  Solving for Uz, Initial residual = 0.787544, Final residual = 0.0762155, No Iterations 5
[INFO] MomentumPredictor: 4155.11 [ms]
[INFO] MatrixAssemblyPI: 573.257 [ms]
[INFO] AdjustPhi: 32.851 [ms]
[INFO] ConstrainPressure: 0.005 [ms]
[INFO] MatrixAssemblyPII: 168.499 [ms]
GAMG:  Solving for p, Initial residual = 0.976953, Final residual = 9.46066e-05, No Iterations 37
[INFO] SolveP: 15528 [ms]
time step continuity errors : sum local = 3.81243e-08, global = 3.64993e-22, cumulative = 1.53113e-20
[INFO] ContinuityError: 67.798 [ms]
[INFO] CorrectBoundary: 1.03 [ms]
[INFO] PISOStep: 16557.8 [ms]
[INFO] MatrixAssemblyPI: 557.052 [ms]
[INFO] AdjustPhi: 30.394 [ms]
[INFO] ConstrainPressure: 0.004 [ms]
[INFO] MatrixAssemblyPII: 167.612 [ms]
GAMG:  Solving for p, Initial residual = 0.920739, Final residual = 7.68893e-05, No Iterations 56
[INFO] SolveP: 23406 [ms]
time step continuity errors : sum local = 3.10417e-08, global = 2.11965e-22, cumulative = 1.55233e-20
[INFO] ContinuityError: 68.17 [ms]
[INFO] CorrectBoundary: 1.089 [ms]
[INFO] PISOStep: 24417.4 [ms]
[INFO] TimeStep: 45696 [ms]
ExecutionTime = 569.06 s  ClockTime = 571 s

Time = 0.00175

Courant Number mean: 0.0384998 max: 1.02733
[INFO] MatrixAssemblyU: 499.426 [ms]
DILUPBiCGStab:  Solving for Ux, Initial residual = 0.0622298, Final residual = 0.00423319, No Iterations 5
DILUPBiCGStab:  Solving for Uy, Initial residual = 0.256444, Final residual = 0.0143712, No Iterations 5
DILUPBiCGStab:  Solving for Uz, Initial residual = 0.782605, Final residual = 0.0728398, No Iterations 5
[INFO] MomentumPredictor: 4173.95 [ms]
[INFO] MatrixAssemblyPI: 574.155 [ms]
[INFO] AdjustPhi: 30.454 [ms]
[INFO] ConstrainPressure: 0.005 [ms]
[INFO] MatrixAssemblyPII: 167.239 [ms]
GAMG:  Solving for p, Initial residual = 0.977641, Final residual = 4.14696e-05, No Iterations 40
[INFO] SolveP: 16771.2 [ms]
time step continuity errors : sum local = 1.97318e-08, global = 5.49351e-22, cumulative = 1.60726e-20
[INFO] ContinuityError: 68.85 [ms]
[INFO] CorrectBoundary: 1.66 [ms]
[INFO] PISOStep: 17799.8 [ms]
[INFO] MatrixAssemblyPI: 556.171 [ms]
[INFO] AdjustPhi: 32.492 [ms]
[INFO] ConstrainPressure: 0.004 [ms]
[INFO] MatrixAssemblyPII: 167.452 [ms]
GAMG:  Solving for p, Initial residual = 0.913304, Final residual = 9.58287e-05, No Iterations 49
[INFO] SolveP: 20485.5 [ms]
time step continuity errors : sum local = 4.60448e-08, global = 1.25525e-21, cumulative = 1.73279e-20
[INFO] ContinuityError: 68.097 [ms]
[INFO] CorrectBoundary: 1.196 [ms]
[INFO] PISOStep: 21498.3 [ms]
[INFO] TimeStep: 44038.4 [ms]
ExecutionTime = 612.92 s  ClockTime = 615 s

Time = 0.001875

Courant Number mean: 0.039977 max: 1.69077
[INFO] MatrixAssemblyU: 495.806 [ms]
DILUPBiCGStab:  Solving for Ux, Initial residual = 0.0696574, Final residual = 0.00444101, No Iterations 5
DILUPBiCGStab:  Solving for Uy, Initial residual = 0.287748, Final residual = 0.015391, No Iterations 5
DILUPBiCGStab:  Solving for Uz, Initial residual = 0.782257, Final residual = 0.0664821, No Iterations 5
[INFO] MomentumPredictor: 4156.85 [ms]
[INFO] MatrixAssemblyPI: 572.874 [ms]
[INFO] AdjustPhi: 31.029 [ms]
[INFO] ConstrainPressure: 0.005 [ms]
[INFO] MatrixAssemblyPII: 167.421 [ms]
GAMG:  Solving for p, Initial residual = 0.979733, Final residual = 6.97708e-05, No Iterations 51
[INFO] SolveP: 21401.4 [ms]
time step continuity errors : sum local = 3.91445e-08, global = 2.11655e-22, cumulative = 1.75395e-20
[INFO] ContinuityError: 67.897 [ms]
[INFO] CorrectBoundary: 1.186 [ms]
[INFO] PISOStep: 22429 [ms]
[INFO] MatrixAssemblyPI: 555.093 [ms]
[INFO] AdjustPhi: 31.939 [ms]
[INFO] ConstrainPressure: 0.004 [ms]
[INFO] MatrixAssemblyPII: 168.761 [ms]
GAMG:  Solving for p, Initial residual = 0.921189, Final residual = 9.95627e-05, No Iterations 53
[INFO] SolveP: 22178.5 [ms]
time step continuity errors : sum local = 5.59924e-08, global = -1.42627e-21, cumulative = 1.61132e-20
[INFO] ContinuityError: 68.141 [ms]
[INFO] CorrectBoundary: 1.362 [ms]
[INFO] PISOStep: 23190.3 [ms]
[INFO] TimeStep: 50339.2 [ms]
ExecutionTime = 663.04 s  ClockTime = 666 s

Time = 0.002

Courant Number mean: 0.0409633 max: 1.72817
[INFO] MatrixAssemblyU: 499.616 [ms]
DILUPBiCGStab:  Solving for Ux, Initial residual = 0.0807183, Final residual = 0.00476455, No Iterations 5
DILUPBiCGStab:  Solving for Uy, Initial residual = 0.305088, Final residual = 0.0155848, No Iterations 5
DILUPBiCGStab:  Solving for Uz, Initial residual = 0.776854, Final residual = 0.0610109, No Iterations 5
[INFO] MomentumPredictor: 4155.22 [ms]
[INFO] MatrixAssemblyPI: 574.185 [ms]
[INFO] AdjustPhi: 29.525 [ms]
[INFO] ConstrainPressure: 0.004 [ms]
[INFO] MatrixAssemblyPII: 167.248 [ms]
GAMG:  Solving for p, Initial residual = 0.980851, Final residual = 8.67736e-05, No Iterations 53
[INFO] SolveP: 22165.5 [ms]
time step continuity errors : sum local = 5.75191e-08, global = 1.21926e-21, cumulative = 1.73325e-20
[INFO] ContinuityError: 69.485 [ms]
[INFO] CorrectBoundary: 1.383 [ms]
[INFO] PISOStep: 23193.6 [ms]
[INFO] MatrixAssemblyPI: 555.37 [ms]
[INFO] AdjustPhi: 33.151 [ms]
[INFO] ConstrainPressure: 0.005 [ms]
[INFO] MatrixAssemblyPII: 168.564 [ms]
GAMG:  Solving for p, Initial residual = 0.916146, Final residual = 6.22592e-05, No Iterations 43
[INFO] SolveP: 18026 [ms]
time step continuity errors : sum local = 4.16768e-08, global = 4.70459e-22, cumulative = 1.7803e-20
[INFO] ContinuityError: 68.875 [ms]
[INFO] CorrectBoundary: 1.712 [ms]
[INFO] PISOStep: 19038.9 [ms]
[INFO] TimeStep: 46954 [ms]
ExecutionTime = 709.8 s  ClockTime = 713 s

Time = 0.002125

Courant Number mean: 0.0424765 max: 2.57527
[INFO] MatrixAssemblyU: 499.058 [ms]
DILUPBiCGStab:  Solving for Ux, Initial residual = 0.0913221, Final residual = 0.00520572, No Iterations 5
DILUPBiCGStab:  Solving for Uy, Initial residual = 0.340051, Final residual = 0.0168957, No Iterations 5
DILUPBiCGStab:  Solving for Uz, Initial residual = 0.781116, Final residual = 0.0623824, No Iterations 5
[INFO] MomentumPredictor: 4158.57 [ms]
[INFO] MatrixAssemblyPI: 573.86 [ms]
[INFO] AdjustPhi: 29.877 [ms]
[INFO] ConstrainPressure: 0.004 [ms]
[INFO] MatrixAssemblyPII: 167.077 [ms]
GAMG:  Solving for p, Initial residual = 0.981926, Final residual = 7.40975e-05, No Iterations 41
[INFO] SolveP: 17207.2 [ms]
time step continuity errors : sum local = 5.84238e-08, global = 2.66228e-21, cumulative = 2.04652e-20
[INFO] ContinuityError: 67.904 [ms]
[INFO] CorrectBoundary: 1.385 [ms]
[INFO] PISOStep: 18235.1 [ms]
[INFO] MatrixAssemblyPI: 557.143 [ms]
[INFO] AdjustPhi: 30.561 [ms]
[INFO] ConstrainPressure: 0.004 [ms]
[INFO] MatrixAssemblyPII: 168.241 [ms]
GAMG:  Solving for p, Initial residual = 0.921198, Final residual = 6.20731e-05, No Iterations 47
[INFO] SolveP: 19689 [ms]
time step continuity errors : sum local = 4.93521e-08, global = 7.6204e-22, cumulative = 2.12273e-20
[INFO] ContinuityError: 67.8 [ms]
[INFO] CorrectBoundary: 1.267 [ms]
[INFO] PISOStep: 20700.6 [ms]
[INFO] TimeStep: 43659.8 [ms]
ExecutionTime = 753.28 s  ClockTime = 756 s

Time = 0.00225

Courant Number mean: 0.0434814 max: 2.87676
[INFO] MatrixAssemblyU: 499.484 [ms]
DILUPBiCGStab:  Solving for Ux, Initial residual = 0.107323, Final residual = 0.00570091, No Iterations 5
DILUPBiCGStab:  Solving for Uy, Initial residual = 0.363434, Final residual = 0.0174101, No Iterations 5
DILUPBiCGStab:  Solving for Uz, Initial residual = 0.774199, Final residual = 0.0540283, No Iterations 5
[INFO] MomentumPredictor: 4150.96 [ms]
[INFO] MatrixAssemblyPI: 573.063 [ms]
[INFO] AdjustPhi: 30.02 [ms]
[INFO] ConstrainPressure: 0.005 [ms]
[INFO] MatrixAssemblyPII: 166.811 [ms]
GAMG:  Solving for p, Initial residual = 0.983107, Final residual = 9.90273e-05, No Iterations 35
[INFO] SolveP: 14704.3 [ms]
time step continuity errors : sum local = 9.30118e-08, global = 2.43026e-21, cumulative = 2.36575e-20
[INFO] ContinuityError: 68.388 [ms]
[INFO] CorrectBoundary: 1.431 [ms]
[INFO] PISOStep: 15730.3 [ms]
[INFO] MatrixAssemblyPI: 557.555 [ms]
[INFO] AdjustPhi: 31.224 [ms]
[INFO] ConstrainPressure: 0.004 [ms]
[INFO] MatrixAssemblyPII: 166.812 [ms]
GAMG:  Solving for p, Initial residual = 0.918123, Final residual = 8.10094e-05, No Iterations 50
[INFO] SolveP: 20923.2 [ms]
time step continuity errors : sum local = 7.68379e-08, global = 2.0845e-22, cumulative = 2.3866e-20
[INFO] ContinuityError: 67.97 [ms]
[INFO] CorrectBoundary: 1.34 [ms]
[INFO] PISOStep: 21936.4 [ms]
[INFO] TimeStep: 42384.5 [ms]
ExecutionTime = 795.5 s  ClockTime = 799 s

Time = 0.002375

Courant Number mean: 0.0451135 max: 4.00499
[INFO] MatrixAssemblyU: 498.668 [ms]
DILUPBiCGStab:  Solving for Ux, Initial residual = 0.122362, Final residual = 0.0064899, No Iterations 5
DILUPBiCGStab:  Solving for Uy, Initial residual = 0.401712, Final residual = 0.0192539, No Iterations 5
DILUPBiCGStab:  Solving for Uz, Initial residual = 0.783191, Final residual = 0.0621682, No Iterations 5
[INFO] MomentumPredictor: 4160.7 [ms]
[INFO] MatrixAssemblyPI: 573.514 [ms]
[INFO] AdjustPhi: 30.66 [ms]
[INFO] ConstrainPressure: 0.006 [ms]
[INFO] MatrixAssemblyPII: 166.813 [ms]
GAMG:  Solving for p, Initial residual = 0.983578, Final residual = 9.90039e-05, No Iterations 40
[INFO] SolveP: 16824 [ms]
time step continuity errors : sum local = 1.1197e-07, global = -5.73443e-22, cumulative = 2.32926e-20
[INFO] ContinuityError: 65.656 [ms]
[INFO] CorrectBoundary: 0.953 [ms]
[INFO] PISOStep: 17851.5 [ms]
[INFO] MatrixAssemblyPI: 557.366 [ms]
[INFO] AdjustPhi: 30.256 [ms]
[INFO] ConstrainPressure: 0.004 [ms]
[INFO] MatrixAssemblyPII: 168.382 [ms]
GAMG:  Solving for p, Initial residual = 0.921494, Final residual = 9.69576e-05, No Iterations 36
[INFO] SolveP: 15106.9 [ms]
time step continuity errors : sum local = 1.09986e-07, global = 3.39516e-21, cumulative = 2.66877e-20
[INFO] ContinuityError: 67.208 [ms]
[INFO] CorrectBoundary: 1.273 [ms]
[INFO] PISOStep: 16118.8 [ms]
[INFO] TimeStep: 38697 [ms]
ExecutionTime = 834.03 s  ClockTime = 837 s

Time = 0.0025

Courant Number mean: 0.0462514 max: 4.73897
[INFO] MatrixAssemblyU: 498.974 [ms]
DILUPBiCGStab:  Solving for Ux, Initial residual = 0.145676, Final residual = 0.00737691, No Iterations 5
DILUPBiCGStab:  Solving for Uy, Initial residual = 0.43052, Final residual = 0.0203759, No Iterations 5
DILUPBiCGStab:  Solving for Uz, Initial residual = 0.784808, Final residual = 0.0618891, No Iterations 5
[INFO] MomentumPredictor: 4151.6 [ms]
[INFO] MatrixAssemblyPI: 572.214 [ms]
[INFO] AdjustPhi: 31.23 [ms]
[INFO] ConstrainPressure: 0.004 [ms]
[INFO] MatrixAssemblyPII: 167.557 [ms]
GAMG:  Solving for p, Initial residual = 0.984459, Final residual = 8.72914e-05, No Iterations 66
[INFO] SolveP: 27563.8 [ms]
time step continuity errors : sum local = 1.18332e-07, global = 4.20621e-21, cumulative = 3.08939e-20
[INFO] ContinuityError: 68.181 [ms]
[INFO] CorrectBoundary: 1.862 [ms]
[INFO] PISOStep: 28591.3 [ms]
[INFO] MatrixAssemblyPI: 559.685 [ms]
[INFO] AdjustPhi: 29.218 [ms]
[INFO] ConstrainPressure: 0.004 [ms]
[INFO] MatrixAssemblyPII: 167.073 [ms]
GAMG:  Solving for p, Initial residual = 0.919729, Final residual = 4.54409e-05, No Iterations 73
[INFO] SolveP: 30461 [ms]
time step continuity errors : sum local = 6.21613e-08, global = 6.27416e-22, cumulative = 3.15213e-20
[INFO] ContinuityError: 67.892 [ms]
[INFO] CorrectBoundary: 1.197 [ms]
[INFO] PISOStep: 31474.8 [ms]
[INFO] TimeStep: 64783.4 [ms]
ExecutionTime = 898.55 s  ClockTime = 902 s

End

Finalising parallel run
