/*---------------------------------------------------------------------------*\
| =========                 |                                                 |
| \\      /  F ield         | OpenFOAM: The Open Source CFD Toolbox           |
|  \\    /   O peration     | Version:  2306                                  |
|   \\  /    A nd           | Website:  www.openfoam.com                      |
|    \\/     M anipulation  |                                                 |
\*---------------------------------------------------------------------------*/
Build  : c423ebec-20231012 OPENFOAM=2306 version=v2306
Arch   : "LSB;label=32;scalar=64"
Exec   : simpleFoam -parallel -case /hkfs/work/workspace/scratch/eq4036-windsorbody_setup/workspace/38f44d5cfa93ffcd9646d7cb7e2bcc2c/case
Date   : Feb 16 2024
Time   : 20:41:49
Host   : hkn0417.localdomain
PID    : 445337
I/O    : uncollated
Case   : /hkfs/work/workspace/scratch/eq4036-windsorbody_setup/workspace/38f44d5cfa93ffcd9646d7cb7e2bcc2c/case
nProcs : 8
Hosts  :
(
    (hkn0417.localdomain 8)
)
Pstream initialized with:
    floatTransfer      : false
    nProcsSimpleSum    : 0
    nonBlockingExchange: 0 (tuning: 0)
    exchange algorithm : -1
    commsType          : nonBlocking
    polling iterations : 0
trapFpe: Floating point exception trapping enabled (FOAM_SIGFPE).
fileModificationChecking : Monitoring run-time modified files using timeStampMaster (fileModificationSkew 5, maxFileModificationPolls 20)
allowSystemOperations : Allowing user-supplied system call operations

// * * * * * * * * * * * * * * * * * * * * * * * * * * * * * * * * * * * * * //
Create time

--> FOAM Warning : 
    From void* Foam::dlLibraryTable::openLibrary(const Foam::fileName&, bool)
    in file db/dynamicLibrary/dlLibraryTable/dlLibraryTable.C at line 188
    Could not load "libpetscFoam.so"
libpetscFoam.so: cannot open shared object file: No such file or directory
Create mesh for time = 0


SIMPLE: convergence criteria
    field p	 tolerance 1e-08
    field U	 tolerance 1e-08
    field k	 tolerance 1e-08
    field omega	 tolerance 1e-08
    field nuTilda	 tolerance 1e-08

Reading field p

Reading field U

Reading/calculating face flux field phi

Selecting incompressible transport model Newtonian
Selecting turbulence model type RAS
Selecting RAS turbulence model SpalartAllmaras
Selecting patchDistMethod meshWave
ft2 term: inactive
RAS
{
    RASModel        SpalartAllmaras;
    turbulence      on;
    printCoeffs     on;
    sigmaNut        0.66666;
    kappa           0.41;
    Cb1             0.1355;
    Cb2             0.622;
    Cw2             0.3;
    Cw3             2;
    Cv1             7.1;
    Cs              0.3;
    ck              0.07000000000000001;
    ft2             false;
    Ct3             1.2;
    Ct4             0.5;
}

No MRF models present

Creating finite volume options from "system/fvOptions"

Selecting finite volume options type velocityDampingConstraint
    Source: velocityDamping
    - selecting all cells
    - selected 50457088 cell(s) with volume 222.6066441196678

Starting time loop

--> FOAM Warning : 
    From bool Foam::functionObjectList::read()
    in file db/functionObjects/functionObjectList/functionObjectList.C at line 1035
    Reading "system/controlDict" at line 2 to 41
    Entry 'lref' is not a dictionary
--> FOAM Warning : 
    From bool Foam::functionObjectList::read()
    in file db/functionObjects/functionObjectList/functionObjectList.C at line 1035
    Reading "system/controlDict" at line 2 to 41
    Entry 'Aref' is not a dictionary
--> FOAM Warning : 
    From bool Foam::functionObjectList::read()
    in file db/functionObjects/functionObjectList/functionObjectList.C at line 1035
    Reading "system/controlDict" at line 2 to 41
    Entry 'yawAngle' is not a dictionary
--> FOAM Warning : 
    From bool Foam::functionObjectList::read()
    in file db/functionObjects/functionObjectList/functionObjectList.C at line 1035
    Reading "system/controlDict" at line 2 to 41
    Entry 'lDomain' is not a dictionary
--> FOAM Warning : 
    From bool Foam::functionObjectList::read()
    in file db/functionObjects/functionObjectList/functionObjectList.C at line 1035
    Reading "system/controlDict" at line 2 to 41
    Entry 'bDomain' is not a dictionary
--> FOAM Warning : 
    From bool Foam::functionObjectList::read()
    in file db/functionObjects/functionObjectList/functionObjectList.C at line 1035
    Reading "system/controlDict" at line 2 to 41
    Entry 'hDomain' is not a dictionary
--> FOAM Warning : 
    From bool Foam::functionObjectList::read()
    in file db/functionObjects/functionObjectList/functionObjectList.C at line 1035
    Reading "system/controlDict" at line 2 to 41
    Entry 'xCenter' is not a dictionary
--> FOAM Warning : 
    From bool Foam::functionObjectList::read()
    in file db/functionObjects/functionObjectList/functionObjectList.C at line 1035
    Reading "system/controlDict" at line 2 to 41
    Entry 'yCenter' is not a dictionary
--> FOAM Warning : 
    From bool Foam::functionObjectList::read()
    in file db/functionObjects/functionObjectList/functionObjectList.C at line 1035
    Reading "system/controlDict" at line 2 to 41
    Entry 'zCenter' is not a dictionary
--> FOAM Warning : 
    From bool Foam::functionObjectList::read()
    in file db/functionObjects/functionObjectList/functionObjectList.C at line 1035
    Reading "system/controlDict" at line 2 to 41
    Entry 'inletPatch' is not a dictionary
--> FOAM Warning : 
    From bool Foam::functionObjectList::read()
    in file db/functionObjects/functionObjectList/functionObjectList.C at line 1035
    Reading "system/controlDict" at line 2 to 41
    Entry 'outletPatch' is not a dictionary
--> FOAM Warning : 
    From bool Foam::functionObjectList::read()
    in file db/functionObjects/functionObjectList/functionObjectList.C at line 1035
    Reading "system/controlDict" at line 2 to 41
    Entry 'wallPatches' is not a dictionary
--> FOAM Warning : 
    From bool Foam::functionObjectList::read()
    in file db/functionObjects/functionObjectList/functionObjectList.C at line 1035
    Reading "system/controlDict" at line 2 to 41
    Entry 'forcesWallPatches' is not a dictionary
--> FOAM Warning : 
    From bool Foam::functionObjectList::read()
    in file db/functionObjects/functionObjectList/functionObjectList.C at line 1035
    Reading "system/controlDict" at line 2 to 41
    Entry 'symmPatches' is not a dictionary
--> FOAM Warning : 
    From bool Foam::functionObjectList::read()
    in file db/functionObjects/functionObjectList/functionObjectList.C at line 1035
    Reading "system/controlDict" at line 2 to 41
    Entry 'Uinf' is not a dictionary
--> FOAM Warning : 
    From bool Foam::functionObjectList::read()
    in file db/functionObjects/functionObjectList/functionObjectList.C at line 1035
    Reading "system/controlDict" at line 2 to 41
    Entry 'UinfMag' is not a dictionary
--> FOAM Warning : 
    From bool Foam::functionObjectList::read()
    in file db/functionObjects/functionObjectList/functionObjectList.C at line 1035
    Reading "system/controlDict" at line 2 to 41
    Entry 'nu' is not a dictionary
--> FOAM Warning : 
    From bool Foam::functionObjectList::read()
    in file db/functionObjects/functionObjectList/functionObjectList.C at line 1035
    Reading "system/controlDict" at line 2 to 41
    Entry 'pref' is not a dictionary
--> FOAM Warning : 
    From bool Foam::functionObjectList::read()
    in file db/functionObjects/functionObjectList/functionObjectList.C at line 1035
    Reading "system/controlDict" at line 2 to 41
    Entry 'viscRatio' is not a dictionary
--> FOAM Warning : 
    From bool Foam::functionObjectList::read()
    in file db/functionObjects/functionObjectList/functionObjectList.C at line 1035
    Reading "system/controlDict" at line 2 to 41
    Entry 'Tu' is not a dictionary
--> FOAM Warning : 
    From bool Foam::functionObjectList::read()
    in file db/functionObjects/functionObjectList/functionObjectList.C at line 1035
    Reading "system/controlDict" at line 2 to 41
    Entry 'LESturbModel' is not a dictionary
--> FOAM Warning : 
    From bool Foam::functionObjectList::read()
    in file db/functionObjects/functionObjectList/functionObjectList.C at line 1035
    Reading "system/controlDict" at line 2 to 41
    Entry 'RASturbModel' is not a dictionary
--> FOAM Warning : 
    From bool Foam::functionObjectList::read()
    in file db/functionObjects/functionObjectList/functionObjectList.C at line 1035
    Reading "system/controlDict" at line 2 to 41
    Entry 'deltaTurb' is not a dictionary
--> FOAM Warning : 
    From bool Foam::functionObjectList::read()
    in file db/functionObjects/functionObjectList/functionObjectList.C at line 1035
    Reading "system/controlDict" at line 2 to 41
    Entry 'dt' is not a dictionary
--> FOAM Warning : 
    From bool Foam::functionObjectList::read()
    in file db/functionObjects/functionObjectList/functionObjectList.C at line 1035
    Reading "system/controlDict" at line 2 to 41
    Entry 'tAvg' is not a dictionary
--> FOAM Warning : 
    From bool Foam::functionObjectList::read()
    in file db/functionObjects/functionObjectList/functionObjectList.C at line 1035
    Reading "system/controlDict" at line 2 to 41
    Entry 'tEnd' is not a dictionary
--> FOAM Warning : 
    From bool Foam::functionObjectList::read()
    in file db/functionObjects/functionObjectList/functionObjectList.C at line 1035
    Reading "system/controlDict" at line 2 to 41
    Entry 'writeInterval_' is not a dictionary
--> FOAM Warning : 
    From bool Foam::functionObjectList::read()
    in file db/functionObjects/functionObjectList/functionObjectList.C at line 1035
    Reading "system/controlDict" at line 2 to 41
    Entry 'nCores' is not a dictionary
--> FOAM Warning : 
    From bool Foam::functionObjectList::read()
    in file db/functionObjects/functionObjectList/functionObjectList.C at line 1035
    Reading "system/controlDict" at line 2 to 41
    Entry 'interpScheme' is not a dictionary
--> FOAM Warning : 
    From bool Foam::functionObjectList::read()
    in file db/functionObjects/functionObjectList/functionObjectList.C at line 1035
    Reading "system/controlDict" at line 2 to 41
    Entry 'probeField' is not a dictionary
wallShearStress wallShearStress:
    processing wall patches: 
        Windsor_Body
        CFDWT_Floor
        Windsor_Pins
        Windsor_Base
        Windsor_Body_2
        CFDWT_Floor_2
        Windsor_Pins_2
        Windsor_Base_2
        Windsor_Body_3
        CFDWT_Floor_3
        Windsor_Pins_3
        Windsor_Base_3
        Windsor_Body_4
        CFDWT_Floor_4
        Windsor_Pins_4
        Windsor_Base_4
        Windsor_Body_5
        CFDWT_Floor_5
        Windsor_Pins_5
        Windsor_Base_5
        Windsor_Body_6
        CFDWT_Floor_6
        Windsor_Pins_6
        Windsor_Base_6
        Windsor_Body_7
        CFDWT_Floor_7
        Windsor_Pins_7
        Windsor_Base_7
        Windsor_Body_8
        CFDWT_Floor_8
        Windsor_Pins_8
        Windsor_Base_8

pressure calc_cp:
    Operating mode: staticCoeff
    Not including hydrostatic effects

forceCoeffs forceCoeffsAll:
    rho: rhoInf
    Freestream density (rhoInf) set to 1
    Not including porosity effects
    magUInf: 40
    lRef   : 0.6375
    Aref   : 0.1124
    rhoInf : 1
    Selecting all coefficients
    - Drag force: Cd
    - Drag force front: Cd(f)
    - Drag force rear: Cd(r)
    - Lift force: Cl
    - Lift force front: Cl(f)
    - Lift force rear: Cl(r)
    - Pitch moment: CmPitch
    - Roll moment: CmRoll
    - Yaw moment: CmYaw
    - Side force: Cs
    - Side force front: Cs(f)
    - Side force rear: Cs(r)


forceCoeffs dragCoeffBase:
    rho: rhoInf
    Freestream density (rhoInf) set to 1
    Not including porosity effects
    magUInf: 40
    lRef   : 0.6375
    Aref   : 0.1124
    rhoInf : 1
    Selecting coefficients:
    - Drag force: Cd


Time = 1

velocityDampingConstraint velocityDamping damped 0 (0%) of cells, with max limit 300
[OGL LOG][lduLduBase.H:119] Initialising OGL
	OGL commit:  e75313f+
	Branch: dev 
	Build type: Debug
	Ginkgo version: 1.8.0 ( develop)
	Ginkgo commit: sparse-communicator
	MPI is GPU aware: 1
	Forces host buffer based communication: 0
	CPU ranks per GPU: 1
	Matrix format: Coo
	End OGL_INFO
[OGL LOG][Proc: 0]: global_index_init: 1.051 [ms]
[OGL LOG][Proc: 0]Ux_local_cols: call_init: 0.302 [ms]
[OGL LOG][Proc: 0]Ux_local_rows: call_init: 0.029 [ms]
[OGL LOG][Proc: 0]Ux_local_ldu_map: call_init: 0.018 [ms]
[OGL LOG][Proc: 0]Ux_local_coeffs: call_init: 4.968 [ms]
[OGL LOG][Proc: 0]Ux_non_local_cols: call_init: 0.032 [ms]
[OGL LOG][Proc: 0]Ux_non_local_rows: call_init: 0.005 [ms]
[OGL LOG][Proc: 0]Ux_non_local_ldu_map: call_init: 0.004 [ms]
[OGL LOG][Proc: 0]Ux_non_local_coeffs: call_init: 0.017 [ms]
[OGL LOG][Proc: 0]Ux: init_local_sparsity_pattern: 297616.742 [ms]
[OGL LOG][Proc: 0]Ux: init_non_local_sparsity_pattern: 134.546 [ms]
[OGL LOG][Proc: 0]Ux: update_local_matrix_data: 330.132 [ms]
[OGL LOG][Proc: 0]Ux: update_non_local_matrix_data: 1.186 [ms]
[OGL LOG][Proc: 0]device_partition: call_init: 0.251 [ms]
[OGL LOG][Proc: 0]Ux_matrix: call_init: 604.329 [ms]
[OGL LOG][Proc: 0]Ux_rhs: call_init: 17.523 [ms]
[OGL LOG][Proc: 0]Ux_solution: call_init: 17.62 [ms]
[OGL LOG][Preconditioner.H:121] Generate preconditioner BJ MaxBlockSize 1
[OGL LOG][Proc: 0]Ux: init_precond: 11.927 [ms]
[OGL LOG][StoppingCriterion.H:239] Creating stopping criterion with minIter 0 frequency 1
[OGL LOG][Proc: 0]Ux: generate_solver: 0.305 [ms]
[OGL LOG][Proc: 0]Ux: solve: 438.142 [ms]
[OGL LOG][Proc: 0]Ux: copy_x_back: 28.491 [ms]
[OGL LOG][lduLduBase.H:330] 
Statistics:
	Time per iteration: 62591 [mu s]
	Time per residual norm calculation: 5527.000000 [mu s]
	Time per iteration and DOF: 1.240480 [ns]
	Retrieve results bandwidth 1.776000 [GByte/s]
[OGL LOG][Proc: 0]Ux: solve_multi_gpu: 1367.868 [ms]
BJcudaGKOBiCGStab:  Solving for Ux, Initial residual = 1.000000000002587, Final residual = 0.04568491065517748, No Iterations 7
[OGL LOG][lduLduBase.H:119] Initialising OGL
	OGL commit:  e75313f+
	Branch: dev 
	Build type: Debug
	Ginkgo version: 1.8.0 ( develop)
	Ginkgo commit: sparse-communicator
	MPI is GPU aware: 1
	Forces host buffer based communication: 0
	CPU ranks per GPU: 1
	Matrix format: Coo
	End OGL_INFO
[OGL LOG][Proc: 0]: global_index_init: 0.023 [ms]
[OGL LOG][Proc: 0]Uy_local_cols: call_init: 0.035 [ms]
[OGL LOG][Proc: 0]Uy_local_rows: call_init: 0.032 [ms]
[OGL LOG][Proc: 0]Uy_local_ldu_map: call_init: 0.019 [ms]
[OGL LOG][Proc: 0]Uy_local_coeffs: call_init: 2.209 [ms]
[OGL LOG][Proc: 0]Uy_non_local_cols: call_init: 0.013 [ms]
[OGL LOG][Proc: 0]Uy_non_local_rows: call_init: 0.005 [ms]
[OGL LOG][Proc: 0]Uy_non_local_ldu_map: call_init: 0.004 [ms]
[OGL LOG][Proc: 0]Uy_non_local_coeffs: call_init: 0.008 [ms]
[OGL LOG][Proc: 0]Uy: init_local_sparsity_pattern: 297569.895 [ms]
[OGL LOG][Proc: 0]Uy: init_non_local_sparsity_pattern: 137.023 [ms]
[OGL LOG][Proc: 0]Uy: update_local_matrix_data: 313.852 [ms]
[OGL LOG][Proc: 0]Uy: update_non_local_matrix_data: 1.115 [ms]
[OGL LOG][Proc: 0]Uy_matrix: call_init: 607.289 [ms]
[OGL LOG][Proc: 0]Uy_rhs: call_init: 17.338 [ms]
[OGL LOG][Proc: 0]Uy_solution: call_init: 17.574 [ms]
[OGL LOG][Preconditioner.H:121] Generate preconditioner BJ MaxBlockSize 1
[OGL LOG][Proc: 0]Uy: init_precond: 2.716 [ms]
[OGL LOG][StoppingCriterion.H:239] Creating stopping criterion with minIter 0 frequency 1
[OGL LOG][Proc: 0]Uy: generate_solver: 0.023 [ms]
[OGL LOG][Proc: 0]Uy: solve: 471.619 [ms]
[OGL LOG][Proc: 0]Uy: copy_x_back: 28.371 [ms]
[OGL LOG][lduLduBase.H:330] 
Statistics:
	Time per iteration: 47161 [mu s]
	Time per residual norm calculation: 1605.000000 [mu s]
	Time per iteration and DOF: 0.934675 [ns]
	Retrieve results bandwidth 1.784000 [GByte/s]
[OGL LOG][Proc: 0]Uy: solve_multi_gpu: 1388.15 [ms]
BJcudaGKOBiCGStab:  Solving for Uy, Initial residual = 0.9999999999998398, Final residual = 0.07725065440066675, No Iterations 10
[OGL LOG][lduLduBase.H:119] Initialising OGL
	OGL commit:  e75313f+
	Branch: dev 
	Build type: Debug
	Ginkgo version: 1.8.0 ( develop)
	Ginkgo commit: sparse-communicator
	MPI is GPU aware: 1
	Forces host buffer based communication: 0
	CPU ranks per GPU: 1
	Matrix format: Coo
	End OGL_INFO
[OGL LOG][Proc: 0]: global_index_init: 0.018 [ms]
[OGL LOG][Proc: 0]Uz_local_cols: call_init: 0.038 [ms]
[OGL LOG][Proc: 0]Uz_local_rows: call_init: 0.028 [ms]
[OGL LOG][Proc: 0]Uz_local_ldu_map: call_init: 0.017 [ms]
[OGL LOG][Proc: 0]Uz_local_coeffs: call_init: 2.263 [ms]
[OGL LOG][Proc: 0]Uz_non_local_cols: call_init: 0.023 [ms]
[OGL LOG][Proc: 0]Uz_non_local_rows: call_init: 0.008999999999999999 [ms]
[OGL LOG][Proc: 0]Uz_non_local_ldu_map: call_init: 0.007 [ms]
[OGL LOG][Proc: 0]Uz_non_local_coeffs: call_init: 0.012 [ms]
[OGL LOG][Proc: 0]Uz: init_local_sparsity_pattern: 297636.807 [ms]
[OGL LOG][Proc: 0]Uz: init_non_local_sparsity_pattern: 135.475 [ms]
[OGL LOG][Proc: 0]Uz: update_local_matrix_data: 303.815 [ms]
[OGL LOG][Proc: 0]Uz: update_non_local_matrix_data: 1.223 [ms]
[OGL LOG][Proc: 0]Uz_matrix: call_init: 605.263 [ms]
[OGL LOG][Proc: 0]Uz_rhs: call_init: 17.317 [ms]
[OGL LOG][Proc: 0]Uz_solution: call_init: 17.463 [ms]
[OGL LOG][Preconditioner.H:121] Generate preconditioner BJ MaxBlockSize 1
[OGL LOG][Proc: 0]Uz: init_precond: 2.991 [ms]
[OGL LOG][StoppingCriterion.H:239] Creating stopping criterion with minIter 0 frequency 1
[OGL LOG][Proc: 0]Uz: generate_solver: 0.024 [ms]
[OGL LOG][Proc: 0]Uz: solve: 351.429 [ms]
[OGL LOG][Proc: 0]Uz: copy_x_back: 28.533 [ms]
[OGL LOG][lduLduBase.H:330] 
Statistics:
	Time per iteration: 351429 [mu s]
	Time per residual norm calculation: 1873.000000 [mu s]
	Time per iteration and DOF: 6.964908 [ns]
	Retrieve results bandwidth 1.774000 [GByte/s]
[OGL LOG][Proc: 0]Uz: solve_multi_gpu: 1259.767 [ms]
BJcudaGKOBiCGStab:  Solving for Uz, Initial residual = 1.000000000000033, Final residual = 0.07317246117891126, No Iterations 1
[OGL LOG][lduLduBase.H:119] Initialising OGL
	OGL commit:  e75313f+
	Branch: dev 
	Build type: Debug
	Ginkgo version: 1.8.0 ( develop)
	Ginkgo commit: sparse-communicator
	MPI is GPU aware: 1
	Forces host buffer based communication: 0
	CPU ranks per GPU: 1
	Matrix format: Coo
	End OGL_INFO
[OGL LOG][Proc: 0]: global_index_init: 0.022 [ms]
[OGL LOG][Proc: 0]p_local_cols: call_init: 0.439 [ms]
[OGL LOG][Proc: 0]p_local_rows: call_init: 0.479 [ms]
[OGL LOG][Proc: 0]p_local_ldu_map: call_init: 0.327 [ms]
[OGL LOG][Proc: 0]p_local_coeffs: call_init: 2.74 [ms]
[OGL LOG][Proc: 0]p_non_local_cols: call_init: 0.278 [ms]
[OGL LOG][Proc: 0]p_non_local_rows: call_init: 0.25 [ms]
[OGL LOG][Proc: 0]p_non_local_ldu_map: call_init: 0.212 [ms]
[OGL LOG][Proc: 0]p_non_local_coeffs: call_init: 0.247 [ms]
[OGL LOG][Proc: 0]p: init_local_sparsity_pattern: 298146.758 [ms]
[OGL LOG][Proc: 0]p: init_non_local_sparsity_pattern: 135.415 [ms]
[OGL LOG][Proc: 0]p: update_local_matrix_data: 234.426 [ms]
[OGL LOG][Proc: 0]p: update_non_local_matrix_data: 1.232 [ms]
[OGL LOG][Proc: 0]p_matrix: call_init: 607.996 [ms]
[OGL LOG][Proc: 0]p_rhs: call_init: 17.226 [ms]
[OGL LOG][Proc: 0]p_solution: call_init: 18.123 [ms]
[OGL LOG][Preconditioner.H:346] Generate preconditioner Multigrid MaxLevels 9 MinCoarseRows 10 ZeroGuess 1 Cycle v
[OGL LOG][Proc: 0]p: init_precond: 1487.625 [ms]
[OGL LOG][StoppingCriterion.H:239] Creating stopping criterion with minIter 0 frequency 1
[OGL LOG][Proc: 0]p: generate_solver: 0.033 [ms]
[OGL LOG][Proc: 0]p: solve: 4535.789 [ms]
[OGL LOG][Proc: 0]p: copy_x_back: 28.598 [ms]
[OGL LOG][lduLduBase.H:330] 
Statistics:
	Time per iteration: 39441 [mu s]
	Time per residual norm calculation: 1479.000000 [mu s]
	Time per iteration and DOF: 0.781674 [ns]
	Retrieve results bandwidth 1.769000 [GByte/s]
[OGL LOG][Proc: 0]p: solve_multi_gpu: 6989.814 [ms]
MultigridcudaGKOCG:  Solving for p, Initial residual = 1.000000000001591, Final residual = 0.009665349438026702, No Iterations 115
time step continuity errors : sum local = 0.003502287977280955, global = 8.857593404674382e-06, cumulative = 8.857593404674382e-06
[OGL LOG][lduLduBase.H:119] Initialising OGL
	OGL commit:  e75313f+
	Branch: dev 
	Build type: Debug
	Ginkgo version: 1.8.0 ( develop)
	Ginkgo commit: sparse-communicator
	MPI is GPU aware: 1
	Forces host buffer based communication: 0
	CPU ranks per GPU: 1
	Matrix format: Coo
	End OGL_INFO
[OGL LOG][Proc: 0]: global_index_init: 0.025 [ms]
[OGL LOG][Proc: 0]nuTilda_local_cols: call_init: 2.888 [ms]
[OGL LOG][Proc: 0]nuTilda_local_rows: call_init: 0.012 [ms]
[OGL LOG][Proc: 0]nuTilda_local_ldu_map: call_init: 0.012 [ms]
[OGL LOG][Proc: 0]nuTilda_local_coeffs: call_init: 0.376 [ms]
[OGL LOG][Proc: 0]nuTilda_non_local_cols: call_init: 0.017 [ms]
[OGL LOG][Proc: 0]nuTilda_non_local_rows: call_init: 0.005 [ms]
[OGL LOG][Proc: 0]nuTilda_non_local_ldu_map: call_init: 0.004 [ms]
[OGL LOG][Proc: 0]nuTilda_non_local_coeffs: call_init: 0.01 [ms]
[OGL LOG][Proc: 0]nuTilda: init_local_sparsity_pattern: 297745.246 [ms]
[OGL LOG][Proc: 0]nuTilda: init_non_local_sparsity_pattern: 135.651 [ms]
[OGL LOG][Proc: 0]nuTilda: update_local_matrix_data: 299.783 [ms]
[OGL LOG][Proc: 0]nuTilda: update_non_local_matrix_data: 1.127 [ms]
[OGL LOG][Proc: 0]nuTilda_matrix: call_init: 609.529 [ms]
[OGL LOG][Proc: 0]nuTilda_rhs: call_init: 17.034 [ms]
[OGL LOG][Proc: 0]nuTilda_solution: call_init: 17.727 [ms]
[OGL LOG][Preconditioner.H:121] Generate preconditioner BJ MaxBlockSize 1
[OGL LOG][Proc: 0]nuTilda: init_precond: 2.751 [ms]
[OGL LOG][StoppingCriterion.H:239] Creating stopping criterion with minIter 0 frequency 1
[OGL LOG][Proc: 0]nuTilda: generate_solver: 0.026 [ms]
[OGL LOG][Proc: 0]nuTilda: solve: 401.865 [ms]
[OGL LOG][Proc: 0]nuTilda: copy_x_back: 28.97 [ms]
[OGL LOG][lduLduBase.H:330] 
Statistics:
	Time per iteration: 133955 [mu s]
	Time per residual norm calculation: 2102.000000 [mu s]
	Time per iteration and DOF: 2.654830 [ns]
	Retrieve results bandwidth 1.747000 [GByte/s]
[OGL LOG][Proc: 0]nuTilda: solve_multi_gpu: 1316.407 [ms]
BJcudaGKOBiCGStab:  Solving for nuTilda, Initial residual = 0.999999990998359, Final residual = 0.03403637508538802, No Iterations 3
bounding nuTilda, min: -0.0003627353944375129 max: 0.001590206130805476 average: 7.141420867807816e-05
ExecutionTime = 1582.96 s  ClockTime = 1590 s

--> FOAM Warning : 
    From virtual bool Foam::functionObjects::fieldSelection::checkSelection()
    in file functionObjects/fieldSelections/fieldSelection/fieldSelection.C at line 166
    Field k not found
--> FOAM Warning : 
    From virtual bool Foam::functionObjects::fieldSelection::checkSelection()
    in file functionObjects/fieldSelections/fieldSelection/fieldSelection.C at line 166
    Field gammaInt not found
--> FOAM Warning : 
    From virtual bool Foam::functionObjects::fieldSelection::checkSelection()
    in file functionObjects/fieldSelections/fieldSelection/fieldSelection.C at line 166
    Field omega not found
--> FOAM Warning : 
    From virtual bool Foam::functionObjects::fieldSelection::checkSelection()
    in file functionObjects/fieldSelections/fieldSelection/fieldSelection.C at line 166
    Field ReThetat not found
--> FOAM Warning : 
    From virtual bool Foam::functionObjects::fieldSelection::checkSelection()
    in file functionObjects/fieldSelections/fieldSelection/fieldSelection.C at line 166
    Field epsilon not found
--> FOAM Warning : 
    From virtual bool Foam::functionObjects::solverFieldSelection::updateSelection()
    in file functionObjects/fieldSelections/solverFieldSelection/solverFieldSelection.C at line 85
    Valid solver fields are: 3(U nuTilda p)Time = 2

velocityDampingConstraint velocityDamping damped 0 (0%) of cells, with max limit 300
[OGL LOG][Proc: 0]: global_index_init: 0.284 [ms]
[OGL LOG][Proc: 0]Ux_local_coeffs: call_update: 0.002 [ms]
[OGL LOG][Proc: 0]Ux_non_local_coeffs: call_update: 0 [ms]
[OGL LOG][Proc: 0]Ux: update_local_matrix_data: 383.611 [ms]
[OGL LOG][Proc: 0]Ux: update_non_local_matrix_data: 1.121 [ms]
[OGL LOG][Proc: 0]Ux_matrix: call_update: 7.214 [ms]
[OGL LOG][Proc: 0]Ux_rhs: call_update: 17.649 [ms]
[OGL LOG][Preconditioner.H:121] Generate preconditioner BJ MaxBlockSize 1
[OGL LOG][Proc: 0]Ux: init_precond: 3.688 [ms]
[OGL LOG][StoppingCriterion.H:239] Creating stopping criterion with minIter 8 frequency 1
[OGL LOG][Proc: 0]Ux: generate_solver: 0.023 [ms]
[OGL LOG][Proc: 0]Ux: solve: 370.453 [ms]
[OGL LOG][Proc: 0]Ux: copy_x_back: 28.52 [ms]
[OGL LOG][lduLduBase.H:330] 
Statistics:
	Time per iteration: 92613 [mu s]
	Time per residual norm calculation: 1379.000000 [mu s]
	Time per iteration and DOF: 1.835480 [ns]
	Retrieve results bandwidth 1.774000 [GByte/s]
[OGL LOG][Proc: 0]Ux: solve_multi_gpu: 430.224 [ms]
BJcudaGKOBiCGStab:  Solving for Ux, Initial residual = 0.8164918127941164, Final residual = 0.009471394657021875, No Iterations 4
[OGL LOG][Proc: 0]: global_index_init: 0.27 [ms]
[OGL LOG][Proc: 0]Uy_local_coeffs: call_update: 0 [ms]
[OGL LOG][Proc: 0]Uy_non_local_coeffs: call_update: 0 [ms]
[OGL LOG][Proc: 0]Uy: update_local_matrix_data: 378.358 [ms]
[OGL LOG][Proc: 0]Uy: update_non_local_matrix_data: 1.18 [ms]
[OGL LOG][Proc: 0]Uy_matrix: call_update: 5.078 [ms]
[OGL LOG][Proc: 0]Uy_rhs: call_update: 18.96 [ms]
[OGL LOG][Preconditioner.H:121] Generate preconditioner BJ MaxBlockSize 1
[OGL LOG][Proc: 0]Uy: init_precond: 4.548 [ms]
[OGL LOG][StoppingCriterion.H:239] Creating stopping criterion with minIter 12 frequency 1
[OGL LOG][Proc: 0]Uy: generate_solver: 0.015 [ms]
[OGL LOG][Proc: 0]Uy: solve: 393.842 [ms]
[OGL LOG][Proc: 0]Uy: copy_x_back: 28.574 [ms]
[OGL LOG][lduLduBase.H:330] 
Statistics:
	Time per iteration: 56263 [mu s]
	Time per residual norm calculation: 1718.000000 [mu s]
	Time per iteration and DOF: 1.115066 [ns]
	Retrieve results bandwidth 1.771000 [GByte/s]
[OGL LOG][Proc: 0]Uy: solve_multi_gpu: 456.212 [ms]
BJcudaGKOBiCGStab:  Solving for Uy, Initial residual = 0.9993753306797936, Final residual = 0.002354408262134004, No Iterations 7
[OGL LOG][Proc: 0]: global_index_init: 0.301 [ms]
[OGL LOG][Proc: 0]Uz_local_coeffs: call_update: 0 [ms]
[OGL LOG][Proc: 0]Uz_non_local_coeffs: call_update: 0 [ms]
[OGL LOG][Proc: 0]Uz: update_local_matrix_data: 379.641 [ms]
[OGL LOG][Proc: 0]Uz: update_non_local_matrix_data: 1.19 [ms]
[OGL LOG][Proc: 0]Uz_matrix: call_update: 5.056 [ms]
[OGL LOG][Proc: 0]Uz_rhs: call_update: 19.227 [ms]
[OGL LOG][Preconditioner.H:121] Generate preconditioner BJ MaxBlockSize 1
[OGL LOG][Proc: 0]Uz: init_precond: 4.557 [ms]
[OGL LOG][StoppingCriterion.H:239] Creating stopping criterion with minIter 1 frequency 1
[OGL LOG][Proc: 0]Uz: generate_solver: 0.018 [ms]
[OGL LOG][Proc: 0]Uz: solve: 385.416 [ms]
[OGL LOG][Proc: 0]Uz: copy_x_back: 28.504 [ms]
[OGL LOG][lduLduBase.H:330] 
Statistics:
	Time per iteration: 192708 [mu s]
	Time per residual norm calculation: 1706.000000 [mu s]
	Time per iteration and DOF: 3.819245 [ns]
	Retrieve results bandwidth 1.775000 [GByte/s]
[OGL LOG][Proc: 0]Uz: solve_multi_gpu: 447.208 [ms]
BJcudaGKOBiCGStab:  Solving for Uz, Initial residual = 0.9999992549560839, Final residual = 0.09493969947248654, No Iterations 2
[OGL LOG][Proc: 0]: global_index_init: 6.148 [ms]
[OGL LOG][Proc: 0]p_local_coeffs: call_update: 0 [ms]
[OGL LOG][Proc: 0]p_non_local_coeffs: call_update: 0 [ms]
[OGL LOG][Proc: 0]p: update_local_matrix_data: 295.855 [ms]
[OGL LOG][Proc: 0]p: update_non_local_matrix_data: 1.169 [ms]
[OGL LOG][Proc: 0]p_matrix: call_update: 6.111 [ms]
[OGL LOG][Proc: 0]p_rhs: call_update: 19.075 [ms]
[OGL LOG][Preconditioner.H:346] Generate preconditioner Multigrid MaxLevels 9 MinCoarseRows 10 ZeroGuess 1 Cycle v
[OGL LOG][Proc: 0]p: init_precond: 1320.414 [ms]
[OGL LOG][StoppingCriterion.H:239] Creating stopping criterion with minIter 69 frequency 1
[OGL LOG][Proc: 0]p: generate_solver: 0.008999999999999999 [ms]
[OGL LOG][Proc: 0]p: solve: 2931.986 [ms]
[OGL LOG][Proc: 0]p: copy_x_back: 28.107 [ms]
[OGL LOG][lduLduBase.H:330] 
Statistics:
	Time per iteration: 41885 [mu s]
	Time per residual norm calculation: 1192.000000 [mu s]
	Time per iteration and DOF: 0.830111 [ns]
	Retrieve results bandwidth 1.800000 [GByte/s]
[OGL LOG][Proc: 0]p: solve_multi_gpu: 4356.534 [ms]
MultigridcudaGKOCG:  Solving for p, Initial residual = 0.4272828724730032, Final residual = 0.001759436163333249, No Iterations 70
time step continuity errors : sum local = 0.03807070132310272, global = 0.004177928006082375, cumulative = 0.00418678559948705
[OGL LOG][Proc: 0]: global_index_init: 0.019 [ms]
[OGL LOG][Proc: 0]nuTilda_local_coeffs: call_update: 0 [ms]
[OGL LOG][Proc: 0]nuTilda_non_local_coeffs: call_update: 0 [ms]
[OGL LOG][Proc: 0]nuTilda: update_local_matrix_data: 371.132 [ms]
[OGL LOG][Proc: 0]nuTilda: update_non_local_matrix_data: 1.153 [ms]
[OGL LOG][Proc: 0]nuTilda_matrix: call_update: 5.041 [ms]
[OGL LOG][Proc: 0]nuTilda_rhs: call_update: 18.855 [ms]
[OGL LOG][Preconditioner.H:121] Generate preconditioner BJ MaxBlockSize 1
[OGL LOG][Proc: 0]nuTilda: init_precond: 3.973 [ms]
[OGL LOG][StoppingCriterion.H:239] Creating stopping criterion with minIter 3 frequency 1
[OGL LOG][Proc: 0]nuTilda: generate_solver: 0.015 [ms]
[OGL LOG][Proc: 0]nuTilda: solve: 355.087 [ms]
[OGL LOG][Proc: 0]nuTilda: copy_x_back: 28.495 [ms]
[OGL LOG][lduLduBase.H:330] 
Statistics:
	Time per iteration: 177543 [mu s]
	Time per residual norm calculation: 1416.000000 [mu s]
	Time per iteration and DOF: 3.518693 [ns]
	Retrieve results bandwidth 1.776000 [GByte/s]
[OGL LOG][Proc: 0]nuTilda: solve_multi_gpu: 418.68 [ms]
BJcudaGKOBiCGStab:  Solving for nuTilda, Initial residual = 0.244556345535959, Final residual = 0.01652261255132081, No Iterations 2
ExecutionTime = 1617.2 s  ClockTime = 1624 s

Time = 3

velocityDampingConstraint velocityDamping damped 38911 (0.08%) of cells, with max limit 300
[OGL LOG][Proc: 0]: global_index_init: 0.275 [ms]
[OGL LOG][Proc: 0]Ux_local_coeffs: call_update: 0 [ms]
[OGL LOG][Proc: 0]Ux_non_local_coeffs: call_update: 0 [ms]
[OGL LOG][Proc: 0]Ux: update_local_matrix_data: 377.371 [ms]
[OGL LOG][Proc: 0]Ux: update_non_local_matrix_data: 0.93 [ms]
[OGL LOG][Proc: 0]Ux_matrix: call_update: 7.135 [ms]
[OGL LOG][Proc: 0]Ux_rhs: call_update: 17.55 [ms]
[OGL LOG][Preconditioner.H:121] Generate preconditioner BJ MaxBlockSize 1
[OGL LOG][Proc: 0]Ux: init_precond: 3.753 [ms]
[OGL LOG][StoppingCriterion.H:239] Creating stopping criterion with minIter 5 frequency 1
[OGL LOG][Proc: 0]Ux: generate_solver: 0.014 [ms]
[OGL LOG][Proc: 0]Ux: solve: 352.692 [ms]
[OGL LOG][Proc: 0]Ux: copy_x_back: 28.79 [ms]
[OGL LOG][lduLduBase.H:330] 
Statistics:
	Time per iteration: 117564 [mu s]
	Time per residual norm calculation: 1348.000000 [mu s]
	Time per iteration and DOF: 2.329980 [ns]
	Retrieve results bandwidth 1.758000 [GByte/s]
[OGL LOG][Proc: 0]Ux: solve_multi_gpu: 418.365 [ms]
BJcudaGKOBiCGStab:  Solving for Ux, Initial residual = 0.2852294945554473, Final residual = 0.004807376375175101, No Iterations 3
[OGL LOG][Proc: 0]: global_index_init: 0.289 [ms]
[OGL LOG][Proc: 0]Uy_local_coeffs: call_update: 0 [ms]
[OGL LOG][Proc: 0]Uy_non_local_coeffs: call_update: 0 [ms]
[OGL LOG][Proc: 0]Uy: update_local_matrix_data: 377.884 [ms]
[OGL LOG][Proc: 0]Uy: update_non_local_matrix_data: 1.1 [ms]
[OGL LOG][Proc: 0]Uy_matrix: call_update: 7.17 [ms]
[OGL LOG][Proc: 0]Uy_rhs: call_update: 17.414 [ms]
[OGL LOG][Preconditioner.H:121] Generate preconditioner BJ MaxBlockSize 1
[OGL LOG][Proc: 0]Uy: init_precond: 3.709 [ms]
[OGL LOG][StoppingCriterion.H:239] Creating stopping criterion with minIter 8 frequency 1
[OGL LOG][Proc: 0]Uy: generate_solver: 0.015 [ms]
[OGL LOG][Proc: 0]Uy: solve: 368.003 [ms]
[OGL LOG][Proc: 0]Uy: copy_x_back: 28.408 [ms]
[OGL LOG][lduLduBase.H:330] 
Statistics:
	Time per iteration: 92000 [mu s]
	Time per residual norm calculation: 1195.000000 [mu s]
	Time per iteration and DOF: 1.823332 [ns]
	Retrieve results bandwidth 1.781000 [GByte/s]
[OGL LOG][Proc: 0]Uy: solve_multi_gpu: 428.835 [ms]
BJcudaGKOBiCGStab:  Solving for Uy, Initial residual = 0.2791501199132755, Final residual = 0.006136832297311091, No Iterations 4
[OGL LOG][Proc: 0]: global_index_init: 0.291 [ms]
[OGL LOG][Proc: 0]Uz_local_coeffs: call_update: 0 [ms]
[OGL LOG][Proc: 0]Uz_non_local_coeffs: call_update: 0 [ms]
[OGL LOG][Proc: 0]Uz: update_local_matrix_data: 374.756 [ms]
[OGL LOG][Proc: 0]Uz: update_non_local_matrix_data: 1.222 [ms]
[OGL LOG][Proc: 0]Uz_matrix: call_update: 7.495 [ms]
[OGL LOG][Proc: 0]Uz_rhs: call_update: 17.621 [ms]
[OGL LOG][Preconditioner.H:121] Generate preconditioner BJ MaxBlockSize 1
[OGL LOG][Proc: 0]Uz: init_precond: 3.655 [ms]
[OGL LOG][StoppingCriterion.H:239] Creating stopping criterion with minIter 2 frequency 1
[OGL LOG][Proc: 0]Uz: generate_solver: 0.021 [ms]
[OGL LOG][Proc: 0]Uz: solve: 349.802 [ms]
[OGL LOG][Proc: 0]Uz: copy_x_back: 29.125 [ms]
[OGL LOG][lduLduBase.H:330] 
Statistics:
	Time per iteration: 174901 [mu s]
	Time per residual norm calculation: 1190.000000 [mu s]
	Time per iteration and DOF: 3.466332 [ns]
	Retrieve results bandwidth 1.737000 [GByte/s]
[OGL LOG][Proc: 0]Uz: solve_multi_gpu: 414.641 [ms]
BJcudaGKOBiCGStab:  Solving for Uz, Initial residual = 0.2506677175069313, Final residual = 0.02485633882608469, No Iterations 2
[OGL LOG][Proc: 0]: global_index_init: 4.265 [ms]
[OGL LOG][Proc: 0]p_local_coeffs: call_update: 0 [ms]
[OGL LOG][Proc: 0]p_non_local_coeffs: call_update: 0 [ms]
[OGL LOG][Proc: 0]p: update_local_matrix_data: 289.261 [ms]
[OGL LOG][Proc: 0]p: update_non_local_matrix_data: 1.186 [ms]
[OGL LOG][Proc: 0]p_matrix: call_update: 5.161 [ms]
[OGL LOG][Proc: 0]p_rhs: call_update: 19.699 [ms]
[OGL LOG][Preconditioner.H:346] Generate preconditioner Multigrid MaxLevels 9 MinCoarseRows 10 ZeroGuess 1 Cycle v
[OGL LOG][Proc: 0]p: init_precond: 1469.661 [ms]
[OGL LOG][StoppingCriterion.H:239] Creating stopping criterion with minIter 42 frequency 1
[OGL LOG][Proc: 0]p: generate_solver: 0.01 [ms]
[OGL LOG][Proc: 0]p: solve: 3267.48 [ms]
[OGL LOG][Proc: 0]p: copy_x_back: 29.126 [ms]
[OGL LOG][lduLduBase.H:330] 
Statistics:
	Time per iteration: 38898 [mu s]
	Time per residual norm calculation: 1188.000000 [mu s]
	Time per iteration and DOF: 0.770913 [ns]
	Retrieve results bandwidth 1.737000 [GByte/s]
[OGL LOG][Proc: 0]p: solve_multi_gpu: 4846.083 [ms]
MultigridcudaGKOCG:  Solving for p, Initial residual = 0.3224752046195216, Final residual = 0.003031419861118903, No Iterations 84
time step continuity errors : sum local = 0.02152710330776697, global = 0.0005628990599435748, cumulative = 0.004749684659430624
[OGL LOG][Proc: 0]: global_index_init: 0.027 [ms]
[OGL LOG][Proc: 0]nuTilda_local_coeffs: call_update: 0 [ms]
[OGL LOG][Proc: 0]nuTilda_non_local_coeffs: call_update: 0 [ms]
[OGL LOG][Proc: 0]nuTilda: update_local_matrix_data: 371.217 [ms]
[OGL LOG][Proc: 0]nuTilda: update_non_local_matrix_data: 1.189 [ms]
[OGL LOG][Proc: 0]nuTilda_matrix: call_update: 7.797 [ms]
[OGL LOG][Proc: 0]nuTilda_rhs: call_update: 17.836 [ms]
[OGL LOG][Preconditioner.H:121] Generate preconditioner BJ MaxBlockSize 1
[OGL LOG][Proc: 0]nuTilda: init_precond: 3.128 [ms]
[OGL LOG][StoppingCriterion.H:239] Creating stopping criterion with minIter 3 frequency 1
[OGL LOG][Proc: 0]nuTilda: generate_solver: 0.022 [ms]
[OGL LOG][Proc: 0]nuTilda: solve: 344.321 [ms]
[OGL LOG][Proc: 0]nuTilda: copy_x_back: 28.901 [ms]
[OGL LOG][lduLduBase.H:330] 
Statistics:
	Time per iteration: 172160 [mu s]
	Time per residual norm calculation: 1719.000000 [mu s]
	Time per iteration and DOF: 3.412008 [ns]
	Retrieve results bandwidth 1.751000 [GByte/s]
[OGL LOG][Proc: 0]nuTilda: solve_multi_gpu: 408.145 [ms]
BJcudaGKOBiCGStab:  Solving for nuTilda, Initial residual = 0.2258744667943441, Final residual = 0.01281214886143246, No Iterations 2
ExecutionTime = 1651.15 s  ClockTime = 1658 s

Time = 4

velocityDampingConstraint velocityDamping damped 883 (0%) of cells, with max limit 300
[OGL LOG][Proc: 0]: global_index_init: 0.3 [ms]
[OGL LOG][Proc: 0]Ux_local_coeffs: call_update: 0 [ms]
[OGL LOG][Proc: 0]Ux_non_local_coeffs: call_update: 0 [ms]
[OGL LOG][Proc: 0]Ux: update_local_matrix_data: 382.356 [ms]
[OGL LOG][Proc: 0]Ux: update_non_local_matrix_data: 1.024 [ms]
[OGL LOG][Proc: 0]Ux_matrix: call_update: 6.174 [ms]
[OGL LOG][Proc: 0]Ux_rhs: call_update: 19.058 [ms]
[OGL LOG][Preconditioner.H:121] Generate preconditioner BJ MaxBlockSize 1
[OGL LOG][Proc: 0]Ux: init_precond: 3.082 [ms]
[OGL LOG][StoppingCriterion.H:239] Creating stopping criterion with minIter 3 frequency 1
[OGL LOG][Proc: 0]Ux: generate_solver: 0.017 [ms]
[OGL LOG][Proc: 0]Ux: solve: 368.611 [ms]
[OGL LOG][Proc: 0]Ux: copy_x_back: 29.162 [ms]
[OGL LOG][lduLduBase.H:330] 
Statistics:
	Time per iteration: 122870 [mu s]
	Time per residual norm calculation: 1821.000000 [mu s]
	Time per iteration and DOF: 2.435139 [ns]
	Retrieve results bandwidth 1.735000 [GByte/s]
[OGL LOG][Proc: 0]Ux: solve_multi_gpu: 432.183 [ms]
BJcudaGKOBiCGStab:  Solving for Ux, Initial residual = 0.04672472390411883, Final residual = 0.00466534688960897, No Iterations 3
[OGL LOG][Proc: 0]: global_index_init: 0.255 [ms]
[OGL LOG][Proc: 0]Uy_local_coeffs: call_update: 0 [ms]
[OGL LOG][Proc: 0]Uy_non_local_coeffs: call_update: 0 [ms]
[OGL LOG][Proc: 0]Uy: update_local_matrix_data: 379.212 [ms]
[OGL LOG][Proc: 0]Uy: update_non_local_matrix_data: 1.155 [ms]
[OGL LOG][Proc: 0]Uy_matrix: call_update: 7.347 [ms]
[OGL LOG][Proc: 0]Uy_rhs: call_update: 17.632 [ms]
[OGL LOG][Preconditioner.H:121] Generate preconditioner BJ MaxBlockSize 1
[OGL LOG][Proc: 0]Uy: init_precond: 4.061 [ms]
[OGL LOG][StoppingCriterion.H:239] Creating stopping criterion with minIter 5 frequency 1
[OGL LOG][Proc: 0]Uy: generate_solver: 0.014 [ms]
[OGL LOG][Proc: 0]Uy: solve: 365.128 [ms]
[OGL LOG][Proc: 0]Uy: copy_x_back: 28.713 [ms]
[OGL LOG][lduLduBase.H:330] 
Statistics:
	Time per iteration: 91282 [mu s]
	Time per residual norm calculation: 1714.000000 [mu s]
	Time per iteration and DOF: 1.809102 [ns]
	Retrieve results bandwidth 1.762000 [GByte/s]
[OGL LOG][Proc: 0]Uy: solve_multi_gpu: 427.348 [ms]
BJcudaGKOBiCGStab:  Solving for Uy, Initial residual = 0.1230884743645391, Final residual = 0.005858828897618333, No Iterations 4
[OGL LOG][Proc: 0]: global_index_init: 0.264 [ms]
[OGL LOG][Proc: 0]Uz_local_coeffs: call_update: 0 [ms]
[OGL LOG][Proc: 0]Uz_non_local_coeffs: call_update: 0 [ms]
[OGL LOG][Proc: 0]Uz: update_local_matrix_data: 379.045 [ms]
[OGL LOG][Proc: 0]Uz: update_non_local_matrix_data: 1.185 [ms]
[OGL LOG][Proc: 0]Uz_matrix: call_update: 7.471 [ms]
[OGL LOG][Proc: 0]Uz_rhs: call_update: 17.617 [ms]
[OGL LOG][Preconditioner.H:121] Generate preconditioner BJ MaxBlockSize 1
[OGL LOG][Proc: 0]Uz: init_precond: 3.722 [ms]
[OGL LOG][StoppingCriterion.H:239] Creating stopping criterion with minIter 3 frequency 1
[OGL LOG][Proc: 0]Uz: generate_solver: 0.014 [ms]
[OGL LOG][Proc: 0]Uz: solve: 355.117 [ms]
[OGL LOG][Proc: 0]Uz: copy_x_back: 28.237 [ms]
[OGL LOG][lduLduBase.H:330] 
Statistics:
	Time per iteration: 118372 [mu s]
	Time per residual norm calculation: 1709.000000 [mu s]
	Time per iteration and DOF: 2.345993 [ns]
	Retrieve results bandwidth 1.792000 [GByte/s]
[OGL LOG][Proc: 0]Uz: solve_multi_gpu: 416.499 [ms]
BJcudaGKOBiCGStab:  Solving for Uz, Initial residual = 0.1049109117314957, Final residual = 0.009997823415778579, No Iterations 3
[OGL LOG][Proc: 0]: global_index_init: 6.543 [ms]
[OGL LOG][Proc: 0]p_local_coeffs: call_update: 0 [ms]
[OGL LOG][Proc: 0]p_non_local_coeffs: call_update: 0 [ms]
[OGL LOG][Proc: 0]p: update_local_matrix_data: 294.71 [ms]
[OGL LOG][Proc: 0]p: update_non_local_matrix_data: 1.216 [ms]
[OGL LOG][Proc: 0]p_matrix: call_update: 6.989 [ms]
[OGL LOG][Proc: 0]p_rhs: call_update: 17.526 [ms]
[OGL LOG][Preconditioner.H:346] Generate preconditioner Multigrid MaxLevels 9 MinCoarseRows 10 ZeroGuess 1 Cycle v
[OGL LOG][Proc: 0]p: init_precond: 1347.794 [ms]
[OGL LOG][StoppingCriterion.H:239] Creating stopping criterion with minIter 50 frequency 1
[OGL LOG][Proc: 0]p: generate_solver: 0.01 [ms]
[OGL LOG][Proc: 0]p: solve: 2174.902 [ms]
[OGL LOG][Proc: 0]p: copy_x_back: 28.711 [ms]
[OGL LOG][lduLduBase.H:330] 
Statistics:
	Time per iteration: 42645 [mu s]
	Time per residual norm calculation: 1340.000000 [mu s]
	Time per iteration and DOF: 0.845174 [ns]
	Retrieve results bandwidth 1.763000 [GByte/s]
[OGL LOG][Proc: 0]p: solve_multi_gpu: 3635.497 [ms]
MultigridcudaGKOCG:  Solving for p, Initial residual = 0.4173172566129197, Final residual = 0.0008309685835607343, No Iterations 51
time step continuity errors : sum local = 0.01199912203425544, global = -0.001457436236351383, cumulative = 0.003292248423079241
[OGL LOG][Proc: 0]: global_index_init: 0.022 [ms]
[OGL LOG][Proc: 0]nuTilda_local_coeffs: call_update: 0 [ms]
[OGL LOG][Proc: 0]nuTilda_non_local_coeffs: call_update: 0 [ms]
[OGL LOG][Proc: 0]nuTilda: update_local_matrix_data: 371.97 [ms]
[OGL LOG][Proc: 0]nuTilda: update_non_local_matrix_data: 1.087 [ms]
[OGL LOG][Proc: 0]nuTilda_matrix: call_update: 6.958 [ms]
[OGL LOG][Proc: 0]nuTilda_rhs: call_update: 17.316 [ms]
[OGL LOG][Preconditioner.H:121] Generate preconditioner BJ MaxBlockSize 1
[OGL LOG][Proc: 0]nuTilda: init_precond: 2.988 [ms]
[OGL LOG][StoppingCriterion.H:239] Creating stopping criterion with minIter 2 frequency 1
[OGL LOG][Proc: 0]nuTilda: generate_solver: 0.014 [ms]
[OGL LOG][Proc: 0]nuTilda: solve: 356.959 [ms]
[OGL LOG][Proc: 0]nuTilda: copy_x_back: 28.41 [ms]
[OGL LOG][lduLduBase.H:330] 
Statistics:
	Time per iteration: 178479 [mu s]
	Time per residual norm calculation: 1760.000000 [mu s]
	Time per iteration and DOF: 3.537243 [ns]
	Retrieve results bandwidth 1.781000 [GByte/s]
[OGL LOG][Proc: 0]nuTilda: solve_multi_gpu: 419.218 [ms]
BJcudaGKOBiCGStab:  Solving for nuTilda, Initial residual = 0.1364673909842257, Final residual = 0.008039755264782181, No Iterations 2
ExecutionTime = 1684.25 s  ClockTime = 1691 s

Time = 5

velocityDampingConstraint velocityDamping damped 14194 (0.03%) of cells, with max limit 300
[OGL LOG][Proc: 0]: global_index_init: 0.26 [ms]
[OGL LOG][Proc: 0]Ux_local_coeffs: call_update: 0 [ms]
[OGL LOG][Proc: 0]Ux_non_local_coeffs: call_update: 0 [ms]
[OGL LOG][Proc: 0]Ux: update_local_matrix_data: 380.77 [ms]
[OGL LOG][Proc: 0]Ux: update_non_local_matrix_data: 1.051 [ms]
[OGL LOG][Proc: 0]Ux_matrix: call_update: 6.331 [ms]
[OGL LOG][Proc: 0]Ux_rhs: call_update: 18.469 [ms]
[OGL LOG][Preconditioner.H:121] Generate preconditioner BJ MaxBlockSize 1
[OGL LOG][Proc: 0]Ux: init_precond: 3.207 [ms]
[OGL LOG][StoppingCriterion.H:239] Creating stopping criterion with minIter 4 frequency 1
[OGL LOG][Proc: 0]Ux: generate_solver: 0.023 [ms]
[OGL LOG][Proc: 0]Ux: solve: 351.19 [ms]
[OGL LOG][Proc: 0]Ux: copy_x_back: 29.167 [ms]
[OGL LOG][lduLduBase.H:330] 
Statistics:
	Time per iteration: 175595 [mu s]
	Time per residual norm calculation: 1610.000000 [mu s]
	Time per iteration and DOF: 3.480086 [ns]
	Retrieve results bandwidth 1.735000 [GByte/s]
[OGL LOG][Proc: 0]Ux: solve_multi_gpu: 414.393 [ms]
BJcudaGKOBiCGStab:  Solving for Ux, Initial residual = 0.318086258599528, Final residual = 0.0225705262423485, No Iterations 2
[OGL LOG][Proc: 0]: global_index_init: 0.26 [ms]
[OGL LOG][Proc: 0]Uy_local_coeffs: call_update: 0 [ms]
[OGL LOG][Proc: 0]Uy_non_local_coeffs: call_update: 0 [ms]
[OGL LOG][Proc: 0]Uy: update_local_matrix_data: 377.872 [ms]
[OGL LOG][Proc: 0]Uy: update_non_local_matrix_data: 1.212 [ms]
[OGL LOG][Proc: 0]Uy_matrix: call_update: 7.41 [ms]
[OGL LOG][Proc: 0]Uy_rhs: call_update: 17.524 [ms]
[OGL LOG][Preconditioner.H:121] Generate preconditioner BJ MaxBlockSize 1
[OGL LOG][Proc: 0]Uy: init_precond: 3.569 [ms]
[OGL LOG][StoppingCriterion.H:239] Creating stopping criterion with minIter 4 frequency 1
[OGL LOG][Proc: 0]Uy: generate_solver: 0.016 [ms]
[OGL LOG][Proc: 0]Uy: solve: 366.438 [ms]
[OGL LOG][Proc: 0]Uy: copy_x_back: 29.24 [ms]
[OGL LOG][lduLduBase.H:330] 
Statistics:
	Time per iteration: 91609 [mu s]
	Time per residual norm calculation: 1268.000000 [mu s]
	Time per iteration and DOF: 1.815582 [ns]
	Retrieve results bandwidth 1.731000 [GByte/s]
[OGL LOG][Proc: 0]Uy: solve_multi_gpu: 442.885 [ms]
BJcudaGKOBiCGStab:  Solving for Uy, Initial residual = 0.4188575952953983, Final residual = 0.009387581372682117, No Iterations 4
[OGL LOG][Proc: 0]: global_index_init: 0.244 [ms]
[OGL LOG][Proc: 0]Uz_local_coeffs: call_update: 0 [ms]
[OGL LOG][Proc: 0]Uz_non_local_coeffs: call_update: 0 [ms]
[OGL LOG][Proc: 0]Uz: update_local_matrix_data: 377.08 [ms]
[OGL LOG][Proc: 0]Uz: update_non_local_matrix_data: 1.158 [ms]
[OGL LOG][Proc: 0]Uz_matrix: call_update: 5.137 [ms]
[OGL LOG][Proc: 0]Uz_rhs: call_update: 19.173 [ms]
[OGL LOG][Preconditioner.H:121] Generate preconditioner BJ MaxBlockSize 1
[OGL LOG][Proc: 0]Uz: init_precond: 4.145 [ms]
[OGL LOG][StoppingCriterion.H:239] Creating stopping criterion with minIter 3 frequency 1
[OGL LOG][Proc: 0]Uz: generate_solver: 0.016 [ms]
[OGL LOG][Proc: 0]Uz: solve: 362.425 [ms]
[OGL LOG][Proc: 0]Uz: copy_x_back: 28.742 [ms]
[OGL LOG][lduLduBase.H:330] 
Statistics:
	Time per iteration: 120808 [mu s]
	Time per residual norm calculation: 1337.000000 [mu s]
	Time per iteration and DOF: 2.394272 [ns]
	Retrieve results bandwidth 1.761000 [GByte/s]
[OGL LOG][Proc: 0]Uz: solve_multi_gpu: 425.959 [ms]
BJcudaGKOBiCGStab:  Solving for Uz, Initial residual = 0.5190386372700568, Final residual = 0.03841894550773205, No Iterations 3
[OGL LOG][Proc: 0]: global_index_init: 4.064 [ms]
[OGL LOG][Proc: 0]p_local_coeffs: call_update: 0 [ms]
[OGL LOG][Proc: 0]p_non_local_coeffs: call_update: 0 [ms]
[OGL LOG][Proc: 0]p: update_local_matrix_data: 289.312 [ms]
[OGL LOG][Proc: 0]p: update_non_local_matrix_data: 1.158 [ms]
[OGL LOG][Proc: 0]p_matrix: call_update: 7.327 [ms]
[OGL LOG][Proc: 0]p_rhs: call_update: 17.847 [ms]
[OGL LOG][Preconditioner.H:346] Generate preconditioner Multigrid MaxLevels 9 MinCoarseRows 10 ZeroGuess 1 Cycle v
[OGL LOG][Proc: 0]p: init_precond: 1345.313 [ms]
[OGL LOG][StoppingCriterion.H:239] Creating stopping criterion with minIter 30 frequency 1
[OGL LOG][Proc: 0]p: generate_solver: 0.01 [ms]
[OGL LOG][Proc: 0]p: solve: 2506.056 [ms]
[OGL LOG][Proc: 0]p: copy_x_back: 29.038 [ms]
[OGL LOG][lduLduBase.H:330] 
Statistics:
	Time per iteration: 41082 [mu s]
	Time per residual norm calculation: 1045.000000 [mu s]
	Time per iteration and DOF: 0.814197 [ns]
	Retrieve results bandwidth 1.743000 [GByte/s]
[OGL LOG][Proc: 0]p: solve_multi_gpu: 3964.051 [ms]
MultigridcudaGKOCG:  Solving for p, Initial residual = 0.2533550640511062, Final residual = 0.002425627117506691, No Iterations 61
time step continuity errors : sum local = 0.03348314749388397, global = -0.005953852065822105, cumulative = -0.002661603642742864
[OGL LOG][Proc: 0]: global_index_init: 0.019 [ms]
[OGL LOG][Proc: 0]nuTilda_local_coeffs: call_update: 0 [ms]
[OGL LOG][Proc: 0]nuTilda_non_local_coeffs: call_update: 0 [ms]
[OGL LOG][Proc: 0]nuTilda: update_local_matrix_data: 373.285 [ms]
[OGL LOG][Proc: 0]nuTilda: update_non_local_matrix_data: 1.184 [ms]
[OGL LOG][Proc: 0]nuTilda_matrix: call_update: 6.637 [ms]
[OGL LOG][Proc: 0]nuTilda_rhs: call_update: 17.245 [ms]
[OGL LOG][Preconditioner.H:121] Generate preconditioner BJ MaxBlockSize 1
[OGL LOG][Proc: 0]nuTilda: init_precond: 3.52 [ms]
[OGL LOG][StoppingCriterion.H:239] Creating stopping criterion with minIter 3 frequency 1
[OGL LOG][Proc: 0]nuTilda: generate_solver: 0.014 [ms]
[OGL LOG][Proc: 0]nuTilda: solve: 353.342 [ms]
[OGL LOG][Proc: 0]nuTilda: copy_x_back: 28.642 [ms]
[OGL LOG][lduLduBase.H:330] 
Statistics:
	Time per iteration: 176671 [mu s]
	Time per residual norm calculation: 1515.000000 [mu s]
	Time per iteration and DOF: 3.501411 [ns]
	Retrieve results bandwidth 1.767000 [GByte/s]
[OGL LOG][Proc: 0]nuTilda: solve_multi_gpu: 415.452 [ms]
BJcudaGKOBiCGStab:  Solving for nuTilda, Initial residual = 0.08917510549591329, Final residual = 0.004366855718252634, No Iterations 2
ExecutionTime = 1717.7 s  ClockTime = 1725 s

Time = 6

velocityDampingConstraint velocityDamping damped 1410 (0%) of cells, with max limit 300
[OGL LOG][Proc: 0]: global_index_init: 0.328 [ms]
[OGL LOG][Proc: 0]Ux_local_coeffs: call_update: 0 [ms]
[OGL LOG][Proc: 0]Ux_non_local_coeffs: call_update: 0 [ms]
[OGL LOG][Proc: 0]Ux: update_local_matrix_data: 382.725 [ms]
[OGL LOG][Proc: 0]Ux: update_non_local_matrix_data: 1.042 [ms]
[OGL LOG][Proc: 0]Ux_matrix: call_update: 7.201 [ms]
[OGL LOG][Proc: 0]Ux_rhs: call_update: 17.542 [ms]
[OGL LOG][Preconditioner.H:121] Generate preconditioner BJ MaxBlockSize 1
[OGL LOG][Proc: 0]Ux: init_precond: 3.741 [ms]
[OGL LOG][StoppingCriterion.H:239] Creating stopping criterion with minIter 3 frequency 1
[OGL LOG][Proc: 0]Ux: generate_solver: 0.015 [ms]
[OGL LOG][Proc: 0]Ux: solve: 365.524 [ms]
[OGL LOG][Proc: 0]Ux: copy_x_back: 28.206 [ms]
[OGL LOG][lduLduBase.H:330] 
Statistics:
	Time per iteration: 121841 [mu s]
	Time per residual norm calculation: 1337.000000 [mu s]
	Time per iteration and DOF: 2.414745 [ns]
	Retrieve results bandwidth 1.794000 [GByte/s]
[OGL LOG][Proc: 0]Ux: solve_multi_gpu: 424.299 [ms]
BJcudaGKOBiCGStab:  Solving for Ux, Initial residual = 0.1928784877939145, Final residual = 0.01902084072437243, No Iterations 3
[OGL LOG][Proc: 0]: global_index_init: 0.241 [ms]
[OGL LOG][Proc: 0]Uy_local_coeffs: call_update: 0 [ms]
[OGL LOG][Proc: 0]Uy_non_local_coeffs: call_update: 0 [ms]
[OGL LOG][Proc: 0]Uy: update_local_matrix_data: 379.484 [ms]
[OGL LOG][Proc: 0]Uy: update_non_local_matrix_data: 1.034 [ms]
[OGL LOG][Proc: 0]Uy_matrix: call_update: 6.947 [ms]
[OGL LOG][Proc: 0]Uy_rhs: call_update: 16.974 [ms]
[OGL LOG][Preconditioner.H:121] Generate preconditioner BJ MaxBlockSize 1
[OGL LOG][Proc: 0]Uy: init_precond: 3.097 [ms]
[OGL LOG][StoppingCriterion.H:239] Creating stopping criterion with minIter 4 frequency 1
[OGL LOG][Proc: 0]Uy: generate_solver: 0.017 [ms]
[OGL LOG][Proc: 0]Uy: solve: 354.226 [ms]
[OGL LOG][Proc: 0]Uy: copy_x_back: 28.216 [ms]
[OGL LOG][lduLduBase.H:330] 
Statistics:
	Time per iteration: 118075 [mu s]
	Time per residual norm calculation: 1711.000000 [mu s]
	Time per iteration and DOF: 2.340107 [ns]
	Retrieve results bandwidth 1.793000 [GByte/s]
[OGL LOG][Proc: 0]Uy: solve_multi_gpu: 414.498 [ms]
BJcudaGKOBiCGStab:  Solving for Uy, Initial residual = 0.3903017141318046, Final residual = 0.03612324404739506, No Iterations 3
[OGL LOG][Proc: 0]: global_index_init: 0.298 [ms]
[OGL LOG][Proc: 0]Uz_local_coeffs: call_update: 0 [ms]
[OGL LOG][Proc: 0]Uz_non_local_coeffs: call_update: 0 [ms]
[OGL LOG][Proc: 0]Uz: update_local_matrix_data: 380.382 [ms]
[OGL LOG][Proc: 0]Uz: update_non_local_matrix_data: 1.023 [ms]
[OGL LOG][Proc: 0]Uz_matrix: call_update: 6.717 [ms]
[OGL LOG][Proc: 0]Uz_rhs: call_update: 17.826 [ms]
[OGL LOG][Preconditioner.H:121] Generate preconditioner BJ MaxBlockSize 1
[OGL LOG][Proc: 0]Uz: init_precond: 3.637 [ms]
[OGL LOG][StoppingCriterion.H:239] Creating stopping criterion with minIter 4 frequency 1
[OGL LOG][Proc: 0]Uz: generate_solver: 0.014 [ms]
[OGL LOG][Proc: 0]Uz: solve: 361.632 [ms]
[OGL LOG][Proc: 0]Uz: copy_x_back: 28.689 [ms]
[OGL LOG][lduLduBase.H:330] 
Statistics:
	Time per iteration: 120544 [mu s]
	Time per residual norm calculation: 1188.000000 [mu s]
	Time per iteration and DOF: 2.389040 [ns]
	Retrieve results bandwidth 1.764000 [GByte/s]
[OGL LOG][Proc: 0]Uz: solve_multi_gpu: 422.544 [ms]
BJcudaGKOBiCGStab:  Solving for Uz, Initial residual = 0.3276587984065089, Final residual = 0.0263500210789413, No Iterations 3
[OGL LOG][Proc: 0]: global_index_init: 5.83 [ms]
[OGL LOG][Proc: 0]p_local_coeffs: call_update: 0 [ms]
[OGL LOG][Proc: 0]p_non_local_coeffs: call_update: 0 [ms]
[OGL LOG][Proc: 0]p: update_local_matrix_data: 294.091 [ms]
[OGL LOG][Proc: 0]p: update_non_local_matrix_data: 1.101 [ms]
[OGL LOG][Proc: 0]p_matrix: call_update: 7.212 [ms]
[OGL LOG][Proc: 0]p_rhs: call_update: 17.826 [ms]
[OGL LOG][Preconditioner.H:346] Generate preconditioner Multigrid MaxLevels 9 MinCoarseRows 10 ZeroGuess 1 Cycle v
[OGL LOG][Proc: 0]p: init_precond: 1369.034 [ms]
[OGL LOG][StoppingCriterion.H:239] Creating stopping criterion with minIter 36 frequency 1
[OGL LOG][Proc: 0]p: generate_solver: 0.01 [ms]
[OGL LOG][Proc: 0]p: solve: 3117.036 [ms]
[OGL LOG][Proc: 0]p: copy_x_back: 29.247 [ms]
[OGL LOG][lduLduBase.H:330] 
Statistics:
	Time per iteration: 39962 [mu s]
	Time per residual norm calculation: 1344.000000 [mu s]
	Time per iteration and DOF: 0.792000 [ns]
	Retrieve results bandwidth 1.730000 [GByte/s]
[OGL LOG][Proc: 0]p: solve_multi_gpu: 4592.997 [ms]
MultigridcudaGKOCG:  Solving for p, Initial residual = 0.592184866502796, Final residual = 0.005881463153647343, No Iterations 78
time step continuity errors : sum local = 0.03810591699648991, global = -0.000643018947914456, cumulative = -0.00330462259065732
[OGL LOG][Proc: 0]: global_index_init: 0.027 [ms]
[OGL LOG][Proc: 0]nuTilda_local_coeffs: call_update: 0 [ms]
[OGL LOG][Proc: 0]nuTilda_non_local_coeffs: call_update: 0 [ms]
[OGL LOG][Proc: 0]nuTilda: update_local_matrix_data: 372.142 [ms]
[OGL LOG][Proc: 0]nuTilda: update_non_local_matrix_data: 1.209 [ms]
[OGL LOG][Proc: 0]nuTilda_matrix: call_update: 6.386 [ms]
[OGL LOG][Proc: 0]nuTilda_rhs: call_update: 18.164 [ms]
[OGL LOG][Preconditioner.H:121] Generate preconditioner BJ MaxBlockSize 1
[OGL LOG][Proc: 0]nuTilda: init_precond: 3.862 [ms]
[OGL LOG][StoppingCriterion.H:239] Creating stopping criterion with minIter 3 frequency 1
[OGL LOG][Proc: 0]nuTilda: generate_solver: 0.02 [ms]
[OGL LOG][Proc: 0]nuTilda: solve: 351.827 [ms]
[OGL LOG][Proc: 0]nuTilda: copy_x_back: 28.325 [ms]
[OGL LOG][lduLduBase.H:330] 
Statistics:
	Time per iteration: 175913 [mu s]
	Time per residual norm calculation: 1343.000000 [mu s]
	Time per iteration and DOF: 3.486388 [ns]
	Retrieve results bandwidth 1.787000 [GByte/s]
[OGL LOG][Proc: 0]nuTilda: solve_multi_gpu: 415.391 [ms]
BJcudaGKOBiCGStab:  Solving for nuTilda, Initial residual = 0.06149443172229821, Final residual = 0.003390897826207557, No Iterations 2
ExecutionTime = 1752.21 s  ClockTime = 1760 s

Time = 7

velocityDampingConstraint velocityDamping damped 6687 (0.01%) of cells, with max limit 300
[OGL LOG][Proc: 0]: global_index_init: 0.306 [ms]
[OGL LOG][Proc: 0]Ux_local_coeffs: call_update: 0 [ms]
[OGL LOG][Proc: 0]Ux_non_local_coeffs: call_update: 0 [ms]
[OGL LOG][Proc: 0]Ux: update_local_matrix_data: 383.359 [ms]
[OGL LOG][Proc: 0]Ux: update_non_local_matrix_data: 1.063 [ms]
[OGL LOG][Proc: 0]Ux_matrix: call_update: 7.715 [ms]
[OGL LOG][Proc: 0]Ux_rhs: call_update: 17.861 [ms]
[OGL LOG][Preconditioner.H:121] Generate preconditioner BJ MaxBlockSize 1
[OGL LOG][Proc: 0]Ux: init_precond: 3.374 [ms]
[OGL LOG][StoppingCriterion.H:239] Creating stopping criterion with minIter 4 frequency 1
[OGL LOG][Proc: 0]Ux: generate_solver: 0.018 [ms]
[OGL LOG][Proc: 0]Ux: solve: 371.807 [ms]
[OGL LOG][Proc: 0]Ux: copy_x_back: 28.683 [ms]
[OGL LOG][lduLduBase.H:330] 
Statistics:
	Time per iteration: 92951 [mu s]
	Time per residual norm calculation: 1860.000000 [mu s]
	Time per iteration and DOF: 1.842179 [ns]
	Retrieve results bandwidth 1.764000 [GByte/s]
[OGL LOG][Proc: 0]Ux: solve_multi_gpu: 435.151 [ms]
BJcudaGKOBiCGStab:  Solving for Ux, Initial residual = 0.2999673719863482, Final residual = 0.01479982029001928, No Iterations 4
[OGL LOG][Proc: 0]: global_index_init: 0.271 [ms]
[OGL LOG][Proc: 0]Uy_local_coeffs: call_update: 0 [ms]
[OGL LOG][Proc: 0]Uy_non_local_coeffs: call_update: 0 [ms]
[OGL LOG][Proc: 0]Uy: update_local_matrix_data: 381.97 [ms]
[OGL LOG][Proc: 0]Uy: update_non_local_matrix_data: 1.198 [ms]
[OGL LOG][Proc: 0]Uy_matrix: call_update: 7.805 [ms]
[OGL LOG][Proc: 0]Uy_rhs: call_update: 17.414 [ms]
[OGL LOG][Preconditioner.H:121] Generate preconditioner BJ MaxBlockSize 1
[OGL LOG][Proc: 0]Uy: init_precond: 3.989 [ms]
[OGL LOG][StoppingCriterion.H:239] Creating stopping criterion with minIter 3 frequency 1
[OGL LOG][Proc: 0]Uy: generate_solver: 0.015 [ms]
[OGL LOG][Proc: 0]Uy: solve: 361.388 [ms]
[OGL LOG][Proc: 0]Uy: copy_x_back: 28.156 [ms]
[OGL LOG][lduLduBase.H:330] 
Statistics:
	Time per iteration: 120462 [mu s]
	Time per residual norm calculation: 1338.000000 [mu s]
	Time per iteration and DOF: 2.387415 [ns]
	Retrieve results bandwidth 1.797000 [GByte/s]
[OGL LOG][Proc: 0]Uy: solve_multi_gpu: 424.018 [ms]
BJcudaGKOBiCGStab:  Solving for Uy, Initial residual = 0.24042104979232, Final residual = 0.01689664229140057, No Iterations 3
[OGL LOG][Proc: 0]: global_index_init: 0.308 [ms]
[OGL LOG][Proc: 0]Uz_local_coeffs: call_update: 0 [ms]
[OGL LOG][Proc: 0]Uz_non_local_coeffs: call_update: 0 [ms]
[OGL LOG][Proc: 0]Uz: update_local_matrix_data: 378.053 [ms]
[OGL LOG][Proc: 0]Uz: update_non_local_matrix_data: 1.174 [ms]
[OGL LOG][Proc: 0]Uz_matrix: call_update: 6.307 [ms]
[OGL LOG][Proc: 0]Uz_rhs: call_update: 18.229 [ms]
[OGL LOG][Preconditioner.H:121] Generate preconditioner BJ MaxBlockSize 1
[OGL LOG][Proc: 0]Uz: init_precond: 4.303 [ms]
[OGL LOG][StoppingCriterion.H:239] Creating stopping criterion with minIter 4 frequency 1
[OGL LOG][Proc: 0]Uz: generate_solver: 0.017 [ms]
[OGL LOG][Proc: 0]Uz: solve: 365.519 [ms]
[OGL LOG][Proc: 0]Uz: copy_x_back: 46.992 [ms]
[OGL LOG][lduLduBase.H:330] 
Statistics:
	Time per iteration: 91379 [mu s]
	Time per residual norm calculation: 1711.000000 [mu s]
	Time per iteration and DOF: 1.811024 [ns]
	Retrieve results bandwidth 1.077000 [GByte/s]
[OGL LOG][Proc: 0]Uz: solve_multi_gpu: 448.448 [ms]
BJcudaGKOBiCGStab:  Solving for Uz, Initial residual = 0.2163981985156199, Final residual = 0.0184138516516931, No Iterations 4
[OGL LOG][Proc: 0]: global_index_init: 5.954 [ms]
[OGL LOG][Proc: 0]p_local_coeffs: call_update: 0 [ms]
[OGL LOG][Proc: 0]p_non_local_coeffs: call_update: 0 [ms]
[OGL LOG][Proc: 0]p: update_local_matrix_data: 291.342 [ms]
[OGL LOG][Proc: 0]p: update_non_local_matrix_data: 1.162 [ms]
[OGL LOG][Proc: 0]p_matrix: call_update: 6.91 [ms]
[OGL LOG][Proc: 0]p_rhs: call_update: 18.143 [ms]
[OGL LOG][Preconditioner.H:346] Generate preconditioner Multigrid MaxLevels 9 MinCoarseRows 10 ZeroGuess 1 Cycle v
[OGL LOG][Proc: 0]p: init_precond: 1341.566 [ms]
[OGL LOG][StoppingCriterion.H:239] Creating stopping criterion with minIter 46 frequency 1
[OGL LOG][Proc: 0]p: generate_solver: 0.01 [ms]
[OGL LOG][Proc: 0]p: solve: 2170.797 [ms]
[OGL LOG][Proc: 0]p: copy_x_back: 28.846 [ms]
[OGL LOG][lduLduBase.H:330] 
Statistics:
	Time per iteration: 41746 [mu s]
	Time per residual norm calculation: 1483.000000 [mu s]
	Time per iteration and DOF: 0.827357 [ns]
	Retrieve results bandwidth 1.754000 [GByte/s]
[OGL LOG][Proc: 0]p: solve_multi_gpu: 3621.52 [ms]
MultigridcudaGKOCG:  Solving for p, Initial residual = 0.2739711546625214, Final residual = 0.002670693976245196, No Iterations 52
time step continuity errors : sum local = 0.02445905096743371, global = 0.001017981670886889, cumulative = -0.002286640919770431
[OGL LOG][Proc: 0]: global_index_init: 0.021 [ms]
[OGL LOG][Proc: 0]nuTilda_local_coeffs: call_update: 0 [ms]
[OGL LOG][Proc: 0]nuTilda_non_local_coeffs: call_update: 0 [ms]
[OGL LOG][Proc: 0]nuTilda: update_local_matrix_data: 371.967 [ms]
[OGL LOG][Proc: 0]nuTilda: update_non_local_matrix_data: 1.066 [ms]
[OGL LOG][Proc: 0]nuTilda_matrix: call_update: 5.012 [ms]
[OGL LOG][Proc: 0]nuTilda_rhs: call_update: 19.924 [ms]
[OGL LOG][Preconditioner.H:121] Generate preconditioner BJ MaxBlockSize 1
[OGL LOG][Proc: 0]nuTilda: init_precond: 2.803 [ms]
[OGL LOG][StoppingCriterion.H:239] Creating stopping criterion with minIter 3 frequency 1
[OGL LOG][Proc: 0]nuTilda: generate_solver: 0.016 [ms]
[OGL LOG][Proc: 0]nuTilda: solve: 349.607 [ms]
[OGL LOG][Proc: 0]nuTilda: copy_x_back: 28.697 [ms]
[OGL LOG][lduLduBase.H:330] 
Statistics:
	Time per iteration: 174803 [mu s]
	Time per residual norm calculation: 1328.000000 [mu s]
	Time per iteration and DOF: 3.464389 [ns]
	Retrieve results bandwidth 1.763000 [GByte/s]
[OGL LOG][Proc: 0]nuTilda: solve_multi_gpu: 410.308 [ms]
BJcudaGKOBiCGStab:  Solving for nuTilda, Initial residual = 0.05016697232601567, Final residual = 0.002900576237659149, No Iterations 2
ExecutionTime = 1785.76 s  ClockTime = 1793 s

Time = 8

velocityDampingConstraint velocityDamping damped 3073 (0.01%) of cells, with max limit 300
[OGL LOG][Proc: 0]: global_index_init: 0.279 [ms]
[OGL LOG][Proc: 0]Ux_local_coeffs: call_update: 0 [ms]
[OGL LOG][Proc: 0]Ux_non_local_coeffs: call_update: 0 [ms]
[OGL LOG][Proc: 0]Ux: update_local_matrix_data: 382.56 [ms]
[OGL LOG][Proc: 0]Ux: update_non_local_matrix_data: 1.114 [ms]
[OGL LOG][Proc: 0]Ux_matrix: call_update: 7.18 [ms]
[OGL LOG][Proc: 0]Ux_rhs: call_update: 17.887 [ms]
[OGL LOG][Preconditioner.H:121] Generate preconditioner BJ MaxBlockSize 1
[OGL LOG][Proc: 0]Ux: init_precond: 3.241 [ms]
[OGL LOG][StoppingCriterion.H:239] Creating stopping criterion with minIter 4 frequency 1
[OGL LOG][Proc: 0]Ux: generate_solver: 0.025 [ms]
[OGL LOG][Proc: 0]Ux: solve: 408.468 [ms]
[OGL LOG][Proc: 0]Ux: copy_x_back: 28.502 [ms]
[OGL LOG][lduLduBase.H:330] 
Statistics:
	Time per iteration: 136156 [mu s]
	Time per residual norm calculation: 1501.000000 [mu s]
	Time per iteration and DOF: 2.698451 [ns]
	Retrieve results bandwidth 1.775000 [GByte/s]
[OGL LOG][Proc: 0]Ux: solve_multi_gpu: 469.734 [ms]
BJcudaGKOBiCGStab:  Solving for Ux, Initial residual = 0.2838189818030569, Final residual = 0.02462874026776829, No Iterations 3
[OGL LOG][Proc: 0]: global_index_init: 0.235 [ms]
[OGL LOG][Proc: 0]Uy_local_coeffs: call_update: 0 [ms]
[OGL LOG][Proc: 0]Uy_non_local_coeffs: call_update: 0 [ms]
[OGL LOG][Proc: 0]Uy: update_local_matrix_data: 379.829 [ms]
[OGL LOG][Proc: 0]Uy: update_non_local_matrix_data: 1.146 [ms]
[OGL LOG][Proc: 0]Uy_matrix: call_update: 7.387 [ms]
[OGL LOG][Proc: 0]Uy_rhs: call_update: 17.67 [ms]
[OGL LOG][Preconditioner.H:121] Generate preconditioner BJ MaxBlockSize 1
[OGL LOG][Proc: 0]Uy: init_precond: 3.519 [ms]
[OGL LOG][StoppingCriterion.H:239] Creating stopping criterion with minIter 4 frequency 1
[OGL LOG][Proc: 0]Uy: generate_solver: 0.016 [ms]
[OGL LOG][Proc: 0]Uy: solve: 382.128 [ms]
[OGL LOG][Proc: 0]Uy: copy_x_back: 28.362 [ms]
[OGL LOG][lduLduBase.H:330] 
Statistics:
	Time per iteration: 76425 [mu s]
	Time per residual norm calculation: 1769.000000 [mu s]
	Time per iteration and DOF: 1.514653 [ns]
	Retrieve results bandwidth 1.784000 [GByte/s]
[OGL LOG][Proc: 0]Uy: solve_multi_gpu: 444.085 [ms]
BJcudaGKOBiCGStab:  Solving for Uy, Initial residual = 0.321584788580467, Final residual = 0.00467503852407597, No Iterations 5
[OGL LOG][Proc: 0]: global_index_init: 0.279 [ms]
[OGL LOG][Proc: 0]Uz_local_coeffs: call_update: 0 [ms]
[OGL LOG][Proc: 0]Uz_non_local_coeffs: call_update: 0 [ms]
[OGL LOG][Proc: 0]Uz: update_local_matrix_data: 378.497 [ms]
[OGL LOG][Proc: 0]Uz: update_non_local_matrix_data: 1.256 [ms]
[OGL LOG][Proc: 0]Uz_matrix: call_update: 7.362 [ms]
[OGL LOG][Proc: 0]Uz_rhs: call_update: 16.84 [ms]
[OGL LOG][Preconditioner.H:121] Generate preconditioner BJ MaxBlockSize 1
[OGL LOG][Proc: 0]Uz: init_precond: 4.129 [ms]
[OGL LOG][StoppingCriterion.H:239] Creating stopping criterion with minIter 4 frequency 1
[OGL LOG][Proc: 0]Uz: generate_solver: 0.014 [ms]
[OGL LOG][Proc: 0]Uz: solve: 367.06 [ms]
[OGL LOG][Proc: 0]Uz: copy_x_back: 28.509 [ms]
[OGL LOG][lduLduBase.H:330] 
Statistics:
	Time per iteration: 91765 [mu s]
	Time per residual norm calculation: 1706.000000 [mu s]
	Time per iteration and DOF: 1.818674 [ns]
	Retrieve results bandwidth 1.775000 [GByte/s]
[OGL LOG][Proc: 0]Uz: solve_multi_gpu: 430.024 [ms]
BJcudaGKOBiCGStab:  Solving for Uz, Initial residual = 0.5136093997679039, Final residual = 0.03413110053274648, No Iterations 4
[OGL LOG][Proc: 0]: global_index_init: 6.482 [ms]
[OGL LOG][Proc: 0]p_local_coeffs: call_update: 0 [ms]
[OGL LOG][Proc: 0]p_non_local_coeffs: call_update: 0 [ms]
[OGL LOG][Proc: 0]p: update_local_matrix_data: 289.233 [ms]
[OGL LOG][Proc: 0]p: update_non_local_matrix_data: 1.204 [ms]
[OGL LOG][Proc: 0]p_matrix: call_update: 4.991 [ms]
[OGL LOG][Proc: 0]p_rhs: call_update: 19.996 [ms]
[OGL LOG][Preconditioner.H:346] Generate preconditioner Multigrid MaxLevels 9 MinCoarseRows 10 ZeroGuess 1 Cycle v
[OGL LOG][Proc: 0]p: init_precond: 1307.914 [ms]
[OGL LOG][StoppingCriterion.H:239] Creating stopping criterion with minIter 31 frequency 1
[OGL LOG][Proc: 0]p: generate_solver: 0.008999999999999999 [ms]
[OGL LOG][Proc: 0]p: solve: 2817.988 [ms]
[OGL LOG][Proc: 0]p: copy_x_back: 28.742 [ms]
[OGL LOG][lduLduBase.H:330] 
Statistics:
	Time per iteration: 40840 [mu s]
	Time per residual norm calculation: 1484.000000 [mu s]
	Time per iteration and DOF: 0.809401 [ns]
	Retrieve results bandwidth 1.761000 [GByte/s]
[OGL LOG][Proc: 0]p: solve_multi_gpu: 4233.215 [ms]
MultigridcudaGKOCG:  Solving for p, Initial residual = 0.3441232574016184, Final residual = 0.003094069463785809, No Iterations 69
time step continuity errors : sum local = 0.03882398830646248, global = 0.0003372674996865076, cumulative = -0.001949373420083923
[OGL LOG][Proc: 0]: global_index_init: 0.02 [ms]
[OGL LOG][Proc: 0]nuTilda_local_coeffs: call_update: 0 [ms]
[OGL LOG][Proc: 0]nuTilda_non_local_coeffs: call_update: 0 [ms]
[OGL LOG][Proc: 0]nuTilda: update_local_matrix_data: 371.55 [ms]
[OGL LOG][Proc: 0]nuTilda: update_non_local_matrix_data: 1.159 [ms]
[OGL LOG][Proc: 0]nuTilda_matrix: call_update: 6.724 [ms]
[OGL LOG][Proc: 0]nuTilda_rhs: call_update: 17.53 [ms]
[OGL LOG][Preconditioner.H:121] Generate preconditioner BJ MaxBlockSize 1
[OGL LOG][Proc: 0]nuTilda: init_precond: 3.699 [ms]
[OGL LOG][StoppingCriterion.H:239] Creating stopping criterion with minIter 3 frequency 1
[OGL LOG][Proc: 0]nuTilda: generate_solver: 0.015 [ms]
[OGL LOG][Proc: 0]nuTilda: solve: 375.341 [ms]
[OGL LOG][Proc: 0]nuTilda: copy_x_back: 28.649 [ms]
[OGL LOG][lduLduBase.H:330] 
Statistics:
	Time per iteration: 187670 [mu s]
	Time per residual norm calculation: 1468.000000 [mu s]
	Time per iteration and DOF: 3.719398 [ns]
	Retrieve results bandwidth 1.766000 [GByte/s]
[OGL LOG][Proc: 0]nuTilda: solve_multi_gpu: 439.767 [ms]
BJcudaGKOBiCGStab:  Solving for nuTilda, Initial residual = 0.04130202310549862, Final residual = 0.002534050693671488, No Iterations 2
ExecutionTime = 1819.94 s  ClockTime = 1828 s

Time = 9

velocityDampingConstraint velocityDamping damped 1921 (0%) of cells, with max limit 300
[OGL LOG][Proc: 0]: global_index_init: 0.35 [ms]
[OGL LOG][Proc: 0]Ux_local_coeffs: call_update: 0 [ms]
[OGL LOG][Proc: 0]Ux_non_local_coeffs: call_update: 0 [ms]
[OGL LOG][Proc: 0]Ux: update_local_matrix_data: 377.856 [ms]
[OGL LOG][Proc: 0]Ux: update_non_local_matrix_data: 1.019 [ms]
[OGL LOG][Proc: 0]Ux_matrix: call_update: 8.007999999999999 [ms]
[OGL LOG][Proc: 0]Ux_rhs: call_update: 17.755 [ms]
[OGL LOG][Preconditioner.H:121] Generate preconditioner BJ MaxBlockSize 1
[OGL LOG][Proc: 0]Ux: init_precond: 2.209 [ms]
[OGL LOG][StoppingCriterion.H:239] Creating stopping criterion with minIter 4 frequency 1
[OGL LOG][Proc: 0]Ux: generate_solver: 0.018 [ms]
[OGL LOG][Proc: 0]Ux: solve: 363.632 [ms]
[OGL LOG][Proc: 0]Ux: copy_x_back: 28.213 [ms]
[OGL LOG][lduLduBase.H:330] 
Statistics:
	Time per iteration: 121210 [mu s]
	Time per residual norm calculation: 1518.000000 [mu s]
	Time per iteration and DOF: 2.402239 [ns]
	Retrieve results bandwidth 1.794000 [GByte/s]
[OGL LOG][Proc: 0]Ux: solve_multi_gpu: 433.77 [ms]
BJcudaGKOBiCGStab:  Solving for Ux, Initial residual = 0.1318855145578822, Final residual = 0.01088888406476806, No Iterations 3
[OGL LOG][Proc: 0]: global_index_init: 0.346 [ms]
[OGL LOG][Proc: 0]Uy_local_coeffs: call_update: 0 [ms]
[OGL LOG][Proc: 0]Uy_non_local_coeffs: call_update: 0 [ms]
[OGL LOG][Proc: 0]Uy: update_local_matrix_data: 379.275 [ms]
[OGL LOG][Proc: 0]Uy: update_non_local_matrix_data: 1.042 [ms]
[OGL LOG][Proc: 0]Uy_matrix: call_update: 6.1 [ms]
[OGL LOG][Proc: 0]Uy_rhs: call_update: 19.21 [ms]
[OGL LOG][Preconditioner.H:121] Generate preconditioner BJ MaxBlockSize 1
[OGL LOG][Proc: 0]Uy: init_precond: 3.71 [ms]
[OGL LOG][StoppingCriterion.H:239] Creating stopping criterion with minIter 6 frequency 1
[OGL LOG][Proc: 0]Uy: generate_solver: 0.016 [ms]
[OGL LOG][Proc: 0]Uy: solve: 353.576 [ms]
[OGL LOG][Proc: 0]Uy: copy_x_back: 28.681 [ms]
[OGL LOG][lduLduBase.H:330] 
Statistics:
	Time per iteration: 117858 [mu s]
	Time per residual norm calculation: 1345.000000 [mu s]
	Time per iteration and DOF: 2.335807 [ns]
	Retrieve results bandwidth 1.764000 [GByte/s]
[OGL LOG][Proc: 0]Uy: solve_multi_gpu: 416.235 [ms]
BJcudaGKOBiCGStab:  Solving for Uy, Initial residual = 0.7307695313548696, Final residual = 0.06807696484458153, No Iterations 3
[OGL LOG][Proc: 0]: global_index_init: 0.279 [ms]
[OGL LOG][Proc: 0]Uz_local_coeffs: call_update: 0 [ms]
[OGL LOG][Proc: 0]Uz_non_local_coeffs: call_update: 0 [ms]
[OGL LOG][Proc: 0]Uz: update_local_matrix_data: 379.392 [ms]
[OGL LOG][Proc: 0]Uz: update_non_local_matrix_data: 1.042 [ms]
[OGL LOG][Proc: 0]Uz_matrix: call_update: 6.816 [ms]
[OGL LOG][Proc: 0]Uz_rhs: call_update: 17.743 [ms]
[OGL LOG][Preconditioner.H:121] Generate preconditioner BJ MaxBlockSize 1
[OGL LOG][Proc: 0]Uz: init_precond: 4.31 [ms]
[OGL LOG][StoppingCriterion.H:239] Creating stopping criterion with minIter 4 frequency 1
[OGL LOG][Proc: 0]Uz: generate_solver: 0.017 [ms]
[OGL LOG][Proc: 0]Uz: solve: 360.314 [ms]
[OGL LOG][Proc: 0]Uz: copy_x_back: 28.163 [ms]
[OGL LOG][lduLduBase.H:330] 
Statistics:
	Time per iteration: 120104 [mu s]
	Time per residual norm calculation: 1485.000000 [mu s]
	Time per iteration and DOF: 2.380320 [ns]
	Retrieve results bandwidth 1.797000 [GByte/s]
[OGL LOG][Proc: 0]Uz: solve_multi_gpu: 421.499 [ms]
BJcudaGKOBiCGStab:  Solving for Uz, Initial residual = 0.2707630697755247, Final residual = 0.01874812818134498, No Iterations 3
[OGL LOG][Proc: 0]: global_index_init: 4.299 [ms]
[OGL LOG][Proc: 0]p_local_coeffs: call_update: 0 [ms]
[OGL LOG][Proc: 0]p_non_local_coeffs: call_update: 0 [ms]
[OGL LOG][Proc: 0]p: update_local_matrix_data: 290.076 [ms]
[OGL LOG][Proc: 0]p: update_non_local_matrix_data: 1.094 [ms]
[OGL LOG][Proc: 0]p_matrix: call_update: 5.264 [ms]
[OGL LOG][Proc: 0]p_rhs: call_update: 19.356 [ms]
[OGL LOG][Preconditioner.H:346] Generate preconditioner Multigrid MaxLevels 9 MinCoarseRows 10 ZeroGuess 1 Cycle v
[OGL LOG][Proc: 0]p: init_precond: 1355.056 [ms]
[OGL LOG][StoppingCriterion.H:239] Creating stopping criterion with minIter 41 frequency 1
[OGL LOG][Proc: 0]p: generate_solver: 0.01 [ms]
[OGL LOG][Proc: 0]p: solve: 2210.203 [ms]
[OGL LOG][Proc: 0]p: copy_x_back: 28.781 [ms]
[OGL LOG][lduLduBase.H:330] 
Statistics:
	Time per iteration: 42503 [mu s]
	Time per residual norm calculation: 1335.000000 [mu s]
	Time per iteration and DOF: 0.842359 [ns]
	Retrieve results bandwidth 1.758000 [GByte/s]
[OGL LOG][Proc: 0]p: solve_multi_gpu: 3671.967 [ms]
MultigridcudaGKOCG:  Solving for p, Initial residual = 0.1997726789677843, Final residual = 0.001957046223976468, No Iterations 52
time step continuity errors : sum local = 0.03724805688987252, global = -0.001527898322558681, cumulative = -0.003477271742642604
[OGL LOG][Proc: 0]: global_index_init: 0.026 [ms]
[OGL LOG][Proc: 0]nuTilda_local_coeffs: call_update: 0 [ms]
[OGL LOG][Proc: 0]nuTilda_non_local_coeffs: call_update: 0 [ms]
[OGL LOG][Proc: 0]nuTilda: update_local_matrix_data: 370.993 [ms]
[OGL LOG][Proc: 0]nuTilda: update_non_local_matrix_data: 1.182 [ms]
[OGL LOG][Proc: 0]nuTilda_matrix: call_update: 6.031 [ms]
[OGL LOG][Proc: 0]nuTilda_rhs: call_update: 19.071 [ms]
[OGL LOG][Preconditioner.H:121] Generate preconditioner BJ MaxBlockSize 1
[OGL LOG][Proc: 0]nuTilda: init_precond: 3.289 [ms]
[OGL LOG][StoppingCriterion.H:239] Creating stopping criterion with minIter 3 frequency 1
[OGL LOG][Proc: 0]nuTilda: generate_solver: 0.02 [ms]
[OGL LOG][Proc: 0]nuTilda: solve: 350.781 [ms]
[OGL LOG][Proc: 0]nuTilda: copy_x_back: 28.486 [ms]
[OGL LOG][lduLduBase.H:330] 
Statistics:
	Time per iteration: 175390 [mu s]
	Time per residual norm calculation: 1342.000000 [mu s]
	Time per iteration and DOF: 3.476023 [ns]
	Retrieve results bandwidth 1.776000 [GByte/s]
[OGL LOG][Proc: 0]nuTilda: solve_multi_gpu: 414.837 [ms]
BJcudaGKOBiCGStab:  Solving for nuTilda, Initial residual = 0.03520960742549521, Final residual = 0.002364147202326326, No Iterations 2
ExecutionTime = 1853.8 s  ClockTime = 1861 s

Time = 10

velocityDampingConstraint velocityDamping damped 699 (0%) of cells, with max limit 300
[OGL LOG][Proc: 0]: global_index_init: 0.328 [ms]
[OGL LOG][Proc: 0]Ux_local_coeffs: call_update: 0 [ms]
[OGL LOG][Proc: 0]Ux_non_local_coeffs: call_update: 0 [ms]
[OGL LOG][Proc: 0]Ux: update_local_matrix_data: 381.545 [ms]
[OGL LOG][Proc: 0]Ux: update_non_local_matrix_data: 0.991 [ms]
[OGL LOG][Proc: 0]Ux_matrix: call_update: 6.225 [ms]
[OGL LOG][Proc: 0]Ux_rhs: call_update: 18.151 [ms]
[OGL LOG][Preconditioner.H:121] Generate preconditioner BJ MaxBlockSize 1
[OGL LOG][Proc: 0]Ux: init_precond: 3.285 [ms]
[OGL LOG][StoppingCriterion.H:239] Creating stopping criterion with minIter 4 frequency 1
[OGL LOG][Proc: 0]Ux: generate_solver: 0.017 [ms]
[OGL LOG][Proc: 0]Ux: solve: 390.669 [ms]
[OGL LOG][Proc: 0]Ux: copy_x_back: 29.406 [ms]
[OGL LOG][lduLduBase.H:330] 
Statistics:
	Time per iteration: 97667 [mu s]
	Time per residual norm calculation: 1724.000000 [mu s]
	Time per iteration and DOF: 1.935645 [ns]
	Retrieve results bandwidth 1.721000 [GByte/s]
[OGL LOG][Proc: 0]Ux: solve_multi_gpu: 453.762 [ms]
BJcudaGKOBiCGStab:  Solving for Ux, Initial residual = 0.04951775341862392, Final residual = 0.002362896778969661, No Iterations 4
[OGL LOG][Proc: 0]: global_index_init: 0.257 [ms]
[OGL LOG][Proc: 0]Uy_local_coeffs: call_update: 0 [ms]
[OGL LOG][Proc: 0]Uy_non_local_coeffs: call_update: 0 [ms]
[OGL LOG][Proc: 0]Uy: update_local_matrix_data: 378.899 [ms]
[OGL LOG][Proc: 0]Uy: update_non_local_matrix_data: 1.186 [ms]
[OGL LOG][Proc: 0]Uy_matrix: call_update: 7.407 [ms]
[OGL LOG][Proc: 0]Uy_rhs: call_update: 17.729 [ms]
[OGL LOG][Preconditioner.H:121] Generate preconditioner BJ MaxBlockSize 1
[OGL LOG][Proc: 0]Uy: init_precond: 3.544 [ms]
[OGL LOG][StoppingCriterion.H:239] Creating stopping criterion with minIter 4 frequency 1
[OGL LOG][Proc: 0]Uy: generate_solver: 0.014 [ms]
[OGL LOG][Proc: 0]Uy: solve: 362.515 [ms]
[OGL LOG][Proc: 0]Uy: copy_x_back: 28.986 [ms]
[OGL LOG][lduLduBase.H:330] 
Statistics:
	Time per iteration: 120838 [mu s]
	Time per residual norm calculation: 1189.000000 [mu s]
	Time per iteration and DOF: 2.394867 [ns]
	Retrieve results bandwidth 1.746000 [GByte/s]
[OGL LOG][Proc: 0]Uy: solve_multi_gpu: 425.478 [ms]
BJcudaGKOBiCGStab:  Solving for Uy, Initial residual = 0.2648763598803764, Final residual = 0.02429560750260947, No Iterations 3
[OGL LOG][Proc: 0]: global_index_init: 0.266 [ms]
[OGL LOG][Proc: 0]Uz_local_coeffs: call_update: 0 [ms]
[OGL LOG][Proc: 0]Uz_non_local_coeffs: call_update: 0 [ms]
[OGL LOG][Proc: 0]Uz: update_local_matrix_data: 378.826 [ms]
[OGL LOG][Proc: 0]Uz: update_non_local_matrix_data: 1.143 [ms]
[OGL LOG][Proc: 0]Uz_matrix: call_update: 7.295 [ms]
[OGL LOG][Proc: 0]Uz_rhs: call_update: 18.001 [ms]
[OGL LOG][Preconditioner.H:121] Generate preconditioner BJ MaxBlockSize 1
[OGL LOG][Proc: 0]Uz: init_precond: 3.889 [ms]
[OGL LOG][StoppingCriterion.H:239] Creating stopping criterion with minIter 4 frequency 1
[OGL LOG][Proc: 0]Uz: generate_solver: 0.016 [ms]
[OGL LOG][Proc: 0]Uz: solve: 379.807 [ms]
[OGL LOG][Proc: 0]Uz: copy_x_back: 28.656 [ms]
[OGL LOG][lduLduBase.H:330] 
Statistics:
	Time per iteration: 75961 [mu s]
	Time per residual norm calculation: 1713.000000 [mu s]
	Time per iteration and DOF: 1.505457 [ns]
	Retrieve results bandwidth 1.766000 [GByte/s]
[OGL LOG][Proc: 0]Uz: solve_multi_gpu: 443.176 [ms]
BJcudaGKOBiCGStab:  Solving for Uz, Initial residual = 0.09944636479147592, Final residual = 0.002599272658050679, No Iterations 5
[OGL LOG][Proc: 0]: global_index_init: 6.248 [ms]
[OGL LOG][Proc: 0]p_local_coeffs: call_update: 0 [ms]
[OGL LOG][Proc: 0]p_non_local_coeffs: call_update: 0 [ms]
[OGL LOG][Proc: 0]p: update_local_matrix_data: 292.317 [ms]
[OGL LOG][Proc: 0]p: update_non_local_matrix_data: 1.179 [ms]
[OGL LOG][Proc: 0]p_matrix: call_update: 5.616 [ms]
[OGL LOG][Proc: 0]p_rhs: call_update: 19.689 [ms]
[OGL LOG][Preconditioner.H:346] Generate preconditioner Multigrid MaxLevels 9 MinCoarseRows 10 ZeroGuess 1 Cycle v
[OGL LOG][Proc: 0]p: init_precond: 1327.85 [ms]
[OGL LOG][StoppingCriterion.H:239] Creating stopping criterion with minIter 31 frequency 1
[OGL LOG][Proc: 0]p: generate_solver: 0.01 [ms]
[OGL LOG][Proc: 0]p: solve: 3165.949 [ms]
[OGL LOG][Proc: 0]p: copy_x_back: 29.265 [ms]
[OGL LOG][lduLduBase.H:330] 
Statistics:
	Time per iteration: 40589 [mu s]
	Time per residual norm calculation: 1338.000000 [mu s]
	Time per iteration and DOF: 0.804426 [ns]
	Retrieve results bandwidth 1.729000 [GByte/s]
[OGL LOG][Proc: 0]p: solve_multi_gpu: 4601.668 [ms]
MultigridcudaGKOCG:  Solving for p, Initial residual = 0.4990783073670749, Final residual = 0.004700272782120155, No Iterations 78
time step continuity errors : sum local = 0.02649393723770731, global = -0.0006059547833364603, cumulative = -0.004083226525979065
[OGL LOG][Proc: 0]: global_index_init: 0.02 [ms]
[OGL LOG][Proc: 0]nuTilda_local_coeffs: call_update: 0 [ms]
[OGL LOG][Proc: 0]nuTilda_non_local_coeffs: call_update: 0 [ms]
[OGL LOG][Proc: 0]nuTilda: update_local_matrix_data: 372.477 [ms]
[OGL LOG][Proc: 0]nuTilda: update_non_local_matrix_data: 1.024 [ms]
[OGL LOG][Proc: 0]nuTilda_matrix: call_update: 4.979 [ms]
[OGL LOG][Proc: 0]nuTilda_rhs: call_update: 19.099 [ms]
[OGL LOG][Preconditioner.H:121] Generate preconditioner BJ MaxBlockSize 1
[OGL LOG][Proc: 0]nuTilda: init_precond: 2.601 [ms]
[OGL LOG][StoppingCriterion.H:239] Creating stopping criterion with minIter 3 frequency 1
[OGL LOG][Proc: 0]nuTilda: generate_solver: 0.016 [ms]
[OGL LOG][Proc: 0]nuTilda: solve: 355.101 [ms]
[OGL LOG][Proc: 0]nuTilda: copy_x_back: 28.696 [ms]
[OGL LOG][lduLduBase.H:330] 
Statistics:
	Time per iteration: 177550 [mu s]
	Time per residual norm calculation: 1313.000000 [mu s]
	Time per iteration and DOF: 3.518832 [ns]
	Retrieve results bandwidth 1.763000 [GByte/s]
[OGL LOG][Proc: 0]nuTilda: solve_multi_gpu: 417.703 [ms]
BJcudaGKOBiCGStab:  Solving for nuTilda, Initial residual = 0.02965847999281855, Final residual = 0.001784053110977325, No Iterations 2
ExecutionTime = 1888.52 s  ClockTime = 1896 s

Time = 11

velocityDampingConstraint velocityDamping damped 759 (0%) of cells, with max limit 300
[OGL LOG][Proc: 0]: global_index_init: 0.244 [ms]
[OGL LOG][Proc: 0]Ux_local_coeffs: call_update: 0 [ms]
[OGL LOG][Proc: 0]Ux_non_local_coeffs: call_update: 0 [ms]
[OGL LOG][Proc: 0]Ux: update_local_matrix_data: 383.599 [ms]
[OGL LOG][Proc: 0]Ux: update_non_local_matrix_data: 1.043 [ms]
[OGL LOG][Proc: 0]Ux_matrix: call_update: 5.119 [ms]
[OGL LOG][Proc: 0]Ux_rhs: call_update: 18.956 [ms]
[OGL LOG][Preconditioner.H:121] Generate preconditioner BJ MaxBlockSize 1
[OGL LOG][Proc: 0]Ux: init_precond: 3.321 [ms]
[OGL LOG][StoppingCriterion.H:239] Creating stopping criterion with minIter 4 frequency 1
[OGL LOG][Proc: 0]Ux: generate_solver: 0.024 [ms]
[OGL LOG][Proc: 0]Ux: solve: 368.263 [ms]
[OGL LOG][Proc: 0]Ux: copy_x_back: 28.636 [ms]
[OGL LOG][lduLduBase.H:330] 
Statistics:
	Time per iteration: 92065 [mu s]
	Time per residual norm calculation: 1274.000000 [mu s]
	Time per iteration and DOF: 1.824620 [ns]
	Retrieve results bandwidth 1.767000 [GByte/s]
[OGL LOG][Proc: 0]Ux: solve_multi_gpu: 428.297 [ms]
BJcudaGKOBiCGStab:  Solving for Ux, Initial residual = 0.06583357464734552, Final residual = 0.002659960670979779, No Iterations 4
[OGL LOG][Proc: 0]: global_index_init: 0.299 [ms]
[OGL LOG][Proc: 0]Uy_local_coeffs: call_update: 0 [ms]
[...]
	Time per iteration and DOF: 0.850386 [ns]
	Retrieve results bandwidth 1.766000 [GByte/s]
[OGL LOG][Proc: 0]p: solve_multi_gpu: 3629.015 [ms]
MultigridcudaGKOCG:  Solving for p, Initial residual = 0.1571490750155689, Final residual = 0.001491758638490217, No Iterations 48
time step continuity errors : sum local = 0.001516681093717525, global = 2.459388118445237e-05, cumulative = 0.001813899859010845
[OGL LOG][Proc: 0]: global_index_init: 0.022 [ms]
[OGL LOG][Proc: 0]nuTilda_local_coeffs: call_update: 0 [ms]
[OGL LOG][Proc: 0]nuTilda_non_local_coeffs: call_update: 0 [ms]
[OGL LOG][Proc: 0]nuTilda: update_local_matrix_data: 373.055 [ms]
[OGL LOG][Proc: 0]nuTilda: update_non_local_matrix_data: 1.139 [ms]
[OGL LOG][Proc: 0]nuTilda_matrix: call_update: 6.917 [ms]
[OGL LOG][Proc: 0]nuTilda_rhs: call_update: 17.987 [ms]
[OGL LOG][Preconditioner.H:121] Generate preconditioner BJ MaxBlockSize 1
[OGL LOG][Proc: 0]nuTilda: init_precond: 3.185 [ms]
[OGL LOG][StoppingCriterion.H:239] Creating stopping criterion with minIter 3 frequency 1
[OGL LOG][Proc: 0]nuTilda: generate_solver: 0.018 [ms]
[OGL LOG][Proc: 0]nuTilda: solve: 352.189 [ms]
[OGL LOG][Proc: 0]nuTilda: copy_x_back: 28.753 [ms]
[OGL LOG][lduLduBase.H:330] 
Statistics:
	Time per iteration: 176094 [mu s]
	Time per residual norm calculation: 1190.000000 [mu s]
	Time per iteration and DOF: 3.489975 [ns]
	Retrieve results bandwidth 1.760000 [GByte/s]
[OGL LOG][Proc: 0]nuTilda: solve_multi_gpu: 413.71 [ms]
BJcudaGKOBiCGStab:  Solving for nuTilda, Initial residual = 0.009848825261497626, Final residual = 0.000810216432911102, No Iterations 2
ExecutionTime = 4765.08 s  ClockTime = 4781 s

Time = 98

velocityDampingConstraint velocityDamping damped 0 (0%) of cells, with max limit 300
[OGL LOG][Proc: 0]: global_index_init: 0.272 [ms]
[OGL LOG][Proc: 0]Ux_local_coeffs: call_update: 0 [ms]
[OGL LOG][Proc: 0]Ux_non_local_coeffs: call_update: 0 [ms]
[OGL LOG][Proc: 0]Ux: update_local_matrix_data: 383.485 [ms]
[OGL LOG][Proc: 0]Ux: update_non_local_matrix_data: 1.152 [ms]
[OGL LOG][Proc: 0]Ux_matrix: call_update: 7.489 [ms]
[OGL LOG][Proc: 0]Ux_rhs: call_update: 17.574 [ms]
[OGL LOG][Preconditioner.H:121] Generate preconditioner BJ MaxBlockSize 1
[OGL LOG][Proc: 0]Ux: init_precond: 3.348 [ms]
[OGL LOG][StoppingCriterion.H:239] Creating stopping criterion with minIter 6 frequency 1
[OGL LOG][Proc: 0]Ux: generate_solver: 0.025 [ms]
[OGL LOG][Proc: 0]Ux: solve: 360.061 [ms]
[OGL LOG][Proc: 0]Ux: copy_x_back: 28.957 [ms]
[OGL LOG][lduLduBase.H:330] 
Statistics:
	Time per iteration: 120020 [mu s]
	Time per residual norm calculation: 1200.000000 [mu s]
	Time per iteration and DOF: 2.378655 [ns]
	Retrieve results bandwidth 1.748000 [GByte/s]
[OGL LOG][Proc: 0]Ux: solve_multi_gpu: 422.578 [ms]
BJcudaGKOBiCGStab:  Solving for Ux, Initial residual = 0.006575382638192293, Final residual = 0.0005279959403289683, No Iterations 3
[OGL LOG][Proc: 0]: global_index_init: 0.258 [ms]
[OGL LOG][Proc: 0]Uy_local_coeffs: call_update: 0 [ms]
[OGL LOG][Proc: 0]Uy_non_local_coeffs: call_update: 0 [ms]
[OGL LOG][Proc: 0]Uy: update_local_matrix_data: 379.16 [ms]
[OGL LOG][Proc: 0]Uy: update_non_local_matrix_data: 1.184 [ms]
[OGL LOG][Proc: 0]Uy_matrix: call_update: 7.499 [ms]
[OGL LOG][Proc: 0]Uy_rhs: call_update: 17.705 [ms]
[OGL LOG][Preconditioner.H:121] Generate preconditioner BJ MaxBlockSize 1
[OGL LOG][Proc: 0]Uy: init_precond: 3.594 [ms]
[OGL LOG][StoppingCriterion.H:239] Creating stopping criterion with minIter 4 frequency 1
[OGL LOG][Proc: 0]Uy: generate_solver: 0.014 [ms]
[OGL LOG][Proc: 0]Uy: solve: 376.97 [ms]
[OGL LOG][Proc: 0]Uy: copy_x_back: 28.555 [ms]
[OGL LOG][lduLduBase.H:330] 
Statistics:
	Time per iteration: 94242 [mu s]
	Time per residual norm calculation: 1711.000000 [mu s]
	Time per iteration and DOF: 1.867765 [ns]
	Retrieve results bandwidth 1.772000 [GByte/s]
[OGL LOG][Proc: 0]Uy: solve_multi_gpu: 440.048 [ms]
BJcudaGKOBiCGStab:  Solving for Uy, Initial residual = 0.02179809210509963, Final residual = 0.001065193691763862, No Iterations 4
[OGL LOG][Proc: 0]: global_index_init: 0.262 [ms]
[OGL LOG][Proc: 0]Uz_local_coeffs: call_update: 0 [ms]
[OGL LOG][Proc: 0]Uz_non_local_coeffs: call_update: 0 [ms]
[OGL LOG][Proc: 0]Uz: update_local_matrix_data: 380.441 [ms]
[OGL LOG][Proc: 0]Uz: update_non_local_matrix_data: 1.17 [ms]
[OGL LOG][Proc: 0]Uz_matrix: call_update: 7.634 [ms]
[OGL LOG][Proc: 0]Uz_rhs: call_update: 17.392 [ms]
[OGL LOG][Preconditioner.H:121] Generate preconditioner BJ MaxBlockSize 1
[OGL LOG][Proc: 0]Uz: init_precond: 3.683 [ms]
[OGL LOG][StoppingCriterion.H:239] Creating stopping criterion with minIter 4 frequency 1
[OGL LOG][Proc: 0]Uz: generate_solver: 0.015 [ms]
[OGL LOG][Proc: 0]Uz: solve: 368.799 [ms]
[OGL LOG][Proc: 0]Uz: copy_x_back: 28.396 [ms]
[OGL LOG][lduLduBase.H:330] 
Statistics:
	Time per iteration: 92199 [mu s]
	Time per residual norm calculation: 1714.000000 [mu s]
	Time per iteration and DOF: 1.827275 [ns]
	Retrieve results bandwidth 1.782000 [GByte/s]
[OGL LOG][Proc: 0]Uz: solve_multi_gpu: 430.781 [ms]
BJcudaGKOBiCGStab:  Solving for Uz, Initial residual = 0.02365967632146986, Final residual = 0.00122379906439589, No Iterations 4
[OGL LOG][Proc: 0]: global_index_init: 6.27 [ms]
[OGL LOG][Proc: 0]p_local_coeffs: call_update: 0 [ms]
[OGL LOG][Proc: 0]p_non_local_coeffs: call_update: 0 [ms]
[OGL LOG][Proc: 0]p: update_local_matrix_data: 284.792 [ms]
[OGL LOG][Proc: 0]p: update_non_local_matrix_data: 1.209 [ms]
[OGL LOG][Proc: 0]p_matrix: call_update: 6.514 [ms]
[OGL LOG][Proc: 0]p_rhs: call_update: 17.964 [ms]
[OGL LOG][Preconditioner.H:346] Generate preconditioner Multigrid MaxLevels 9 MinCoarseRows 10 ZeroGuess 1 Cycle v
[OGL LOG][Proc: 0]p: init_precond: 1338.097 [ms]
[OGL LOG][StoppingCriterion.H:239] Creating stopping criterion with minIter 28 frequency 1
[OGL LOG][Proc: 0]p: generate_solver: 0.008999999999999999 [ms]
[OGL LOG][Proc: 0]p: solve: 1610.141 [ms]
[OGL LOG][Proc: 0]p: copy_x_back: 28.992 [ms]
[OGL LOG][lduLduBase.H:330] 
Statistics:
	Time per iteration: 48792 [mu s]
	Time per residual norm calculation: 1480.000000 [mu s]
	Time per iteration and DOF: 0.967000 [ns]
	Retrieve results bandwidth 1.745000 [GByte/s]
[OGL LOG][Proc: 0]p: solve_multi_gpu: 3057.802 [ms]
MultigridcudaGKOCG:  Solving for p, Initial residual = 0.1331370098609337, Final residual = 0.001306569254664105, No Iterations 33
time step continuity errors : sum local = 0.00145533944260605, global = 0.0001495312537095476, cumulative = 0.001963431112720393
[OGL LOG][Proc: 0]: global_index_init: 0.019 [ms]
[OGL LOG][Proc: 0]nuTilda_local_coeffs: call_update: 0 [ms]
[OGL LOG][Proc: 0]nuTilda_non_local_coeffs: call_update: 0 [ms]
[OGL LOG][Proc: 0]nuTilda: update_local_matrix_data: 372.164 [ms]
[OGL LOG][Proc: 0]nuTilda: update_non_local_matrix_data: 1.193 [ms]
[OGL LOG][Proc: 0]nuTilda_matrix: call_update: 5.986 [ms]
[OGL LOG][Proc: 0]nuTilda_rhs: call_update: 18.1 [ms]
[OGL LOG][Preconditioner.H:121] Generate preconditioner BJ MaxBlockSize 1
[OGL LOG][Proc: 0]nuTilda: init_precond: 2.657 [ms]
[OGL LOG][StoppingCriterion.H:239] Creating stopping criterion with minIter 3 frequency 1
[OGL LOG][Proc: 0]nuTilda: generate_solver: 0.017 [ms]
[OGL LOG][Proc: 0]nuTilda: solve: 354.248 [ms]
[OGL LOG][Proc: 0]nuTilda: copy_x_back: 28.477 [ms]
[OGL LOG][lduLduBase.H:330] 
Statistics:
	Time per iteration: 177124 [mu s]
	Time per residual norm calculation: 1491.000000 [mu s]
	Time per iteration and DOF: 3.510389 [ns]
	Retrieve results bandwidth 1.777000 [GByte/s]
[OGL LOG][Proc: 0]nuTilda: solve_multi_gpu: 413.507 [ms]
BJcudaGKOBiCGStab:  Solving for nuTilda, Initial residual = 0.008326676549023566, Final residual = 0.0007044549934808346, No Iterations 2
ExecutionTime = 4797.5 s  ClockTime = 4814 s

Time = 99

velocityDampingConstraint velocityDamping damped 0 (0%) of cells, with max limit 300
[OGL LOG][Proc: 0]: global_index_init: 0.298 [ms]
[OGL LOG][Proc: 0]Ux_local_coeffs: call_update: 0 [ms]
[OGL LOG][Proc: 0]Ux_non_local_coeffs: call_update: 0 [ms]
[OGL LOG][Proc: 0]Ux: update_local_matrix_data: 377.993 [ms]
[OGL LOG][Proc: 0]Ux: update_non_local_matrix_data: 1.07 [ms]
[OGL LOG][Proc: 0]Ux_matrix: call_update: 5.153 [ms]
[OGL LOG][Proc: 0]Ux_rhs: call_update: 18.977 [ms]
[OGL LOG][Preconditioner.H:121] Generate preconditioner BJ MaxBlockSize 1
[OGL LOG][Proc: 0]Ux: init_precond: 2.104 [ms]
[OGL LOG][StoppingCriterion.H:239] Creating stopping criterion with minIter 4 frequency 1
[OGL LOG][Proc: 0]Ux: generate_solver: 0.016 [ms]
[OGL LOG][Proc: 0]Ux: solve: 386.54 [ms]
[OGL LOG][Proc: 0]Ux: copy_x_back: 28.21 [ms]
[OGL LOG][lduLduBase.H:330] 
Statistics:
	Time per iteration: 77308 [mu s]
	Time per residual norm calculation: 1941.000000 [mu s]
	Time per iteration and DOF: 1.532153 [ns]
	Retrieve results bandwidth 1.794000 [GByte/s]
[OGL LOG][Proc: 0]Ux: solve_multi_gpu: 446.472 [ms]
BJcudaGKOBiCGStab:  Solving for Ux, Initial residual = 0.004946218440542823, Final residual = 0.0001492515799198196, No Iterations 5
[OGL LOG][Proc: 0]: global_index_init: 0.276 [ms]
[OGL LOG][Proc: 0]Uy_local_coeffs: call_update: 0 [ms]
[OGL LOG][Proc: 0]Uy_non_local_coeffs: call_update: 0 [ms]
[OGL LOG][Proc: 0]Uy: update_local_matrix_data: 379.123 [ms]
[OGL LOG][Proc: 0]Uy: update_non_local_matrix_data: 1.049 [ms]
[OGL LOG][Proc: 0]Uy_matrix: call_update: 5.443 [ms]
[OGL LOG][Proc: 0]Uy_rhs: call_update: 19.97 [ms]
[OGL LOG][Preconditioner.H:121] Generate preconditioner BJ MaxBlockSize 1
[OGL LOG][Proc: 0]Uy: init_precond: 3.245 [ms]
[OGL LOG][StoppingCriterion.H:239] Creating stopping criterion with minIter 4 frequency 1
[OGL LOG][Proc: 0]Uy: generate_solver: 0.016 [ms]
[OGL LOG][Proc: 0]Uy: solve: 368.874 [ms]
[OGL LOG][Proc: 0]Uy: copy_x_back: 28.495 [ms]
[OGL LOG][lduLduBase.H:330] 
Statistics:
	Time per iteration: 92218 [mu s]
	Time per residual norm calculation: 1707.000000 [mu s]
	Time per iteration and DOF: 1.827652 [ns]
	Retrieve results bandwidth 1.776000 [GByte/s]
[OGL LOG][Proc: 0]Uy: solve_multi_gpu: 431.015 [ms]
BJcudaGKOBiCGStab:  Solving for Uy, Initial residual = 0.02103203796312372, Final residual = 0.000867615855879863, No Iterations 4
[OGL LOG][Proc: 0]: global_index_init: 0.276 [ms]
[OGL LOG][Proc: 0]Uz_local_coeffs: call_update: 0 [ms]
[OGL LOG][Proc: 0]Uz_non_local_coeffs: call_update: 0 [ms]
[OGL LOG][Proc: 0]Uz: update_local_matrix_data: 378.434 [ms]
[OGL LOG][Proc: 0]Uz: update_non_local_matrix_data: 1.028 [ms]
[OGL LOG][Proc: 0]Uz_matrix: call_update: 6.851 [ms]
[OGL LOG][Proc: 0]Uz_rhs: call_update: 18.224 [ms]
[OGL LOG][Preconditioner.H:121] Generate preconditioner BJ MaxBlockSize 1
[OGL LOG][Proc: 0]Uz: init_precond: 3.483 [ms]
[OGL LOG][StoppingCriterion.H:239] Creating stopping criterion with minIter 4 frequency 1
[OGL LOG][Proc: 0]Uz: generate_solver: 0.014 [ms]
[OGL LOG][Proc: 0]Uz: solve: 367.298 [ms]
[OGL LOG][Proc: 0]Uz: copy_x_back: 27.927 [ms]
[OGL LOG][lduLduBase.H:330] 
Statistics:
	Time per iteration: 91824 [mu s]
	Time per residual norm calculation: 1713.000000 [mu s]
	Time per iteration and DOF: 1.819843 [ns]
	Retrieve results bandwidth 1.812000 [GByte/s]
[OGL LOG][Proc: 0]Uz: solve_multi_gpu: 428.651 [ms]
BJcudaGKOBiCGStab:  Solving for Uz, Initial residual = 0.02318103173541875, Final residual = 0.001008225941869138, No Iterations 4
[OGL LOG][Proc: 0]: global_index_init: 5.834 [ms]
[OGL LOG][Proc: 0]p_local_coeffs: call_update: 0 [ms]
[OGL LOG][Proc: 0]p_non_local_coeffs: call_update: 0 [ms]
[OGL LOG][Proc: 0]p: update_local_matrix_data: 289.994 [ms]
[OGL LOG][Proc: 0]p: update_non_local_matrix_data: 1.025 [ms]
[OGL LOG][Proc: 0]p_matrix: call_update: 6.47 [ms]
[OGL LOG][Proc: 0]p_rhs: call_update: 17.899 [ms]
[OGL LOG][Preconditioner.H:346] Generate preconditioner Multigrid MaxLevels 9 MinCoarseRows 10 ZeroGuess 1 Cycle v
[OGL LOG][Proc: 0]p: init_precond: 1340.549 [ms]
[OGL LOG][StoppingCriterion.H:239] Creating stopping criterion with minIter 19 frequency 1
[OGL LOG][Proc: 0]p: generate_solver: 0.01 [ms]
[OGL LOG][Proc: 0]p: solve: 1147.025 [ms]
[OGL LOG][Proc: 0]p: copy_x_back: 28.756 [ms]
[OGL LOG][lduLduBase.H:330] 
Statistics:
	Time per iteration: 57351 [mu s]
	Time per residual norm calculation: 1338.000000 [mu s]
	Time per iteration and DOF: 1.136629 [ns]
	Retrieve results bandwidth 1.760000 [GByte/s]
[OGL LOG][Proc: 0]p: solve_multi_gpu: 2594.238 [ms]
MultigridcudaGKOCG:  Solving for p, Initial residual = 0.1413241127885732, Final residual = 0.001123895575386701, No Iterations 20
time step continuity errors : sum local = 0.00122626919338922, global = 0.0001220455385689202, cumulative = 0.002085476651289313
[OGL LOG][Proc: 0]: global_index_init: 0.025 [ms]
[OGL LOG][Proc: 0]nuTilda_local_coeffs: call_update: 0 [ms]
[OGL LOG][Proc: 0]nuTilda_non_local_coeffs: call_update: 0 [ms]
[OGL LOG][Proc: 0]nuTilda: update_local_matrix_data: 374.84 [ms]
[OGL LOG][Proc: 0]nuTilda: update_non_local_matrix_data: 1.059 [ms]
[OGL LOG][Proc: 0]nuTilda_matrix: call_update: 9.949 [ms]
[OGL LOG][Proc: 0]nuTilda_rhs: call_update: 16.993 [ms]
[OGL LOG][Preconditioner.H:121] Generate preconditioner BJ MaxBlockSize 1
[OGL LOG][Proc: 0]nuTilda: init_precond: 5.018 [ms]
[OGL LOG][StoppingCriterion.H:239] Creating stopping criterion with minIter 3 frequency 1
[OGL LOG][Proc: 0]nuTilda: generate_solver: 0.026 [ms]
[OGL LOG][Proc: 0]nuTilda: solve: 397.646 [ms]
[OGL LOG][Proc: 0]nuTilda: copy_x_back: 28.462 [ms]
[OGL LOG][lduLduBase.H:330] 
Statistics:
	Time per iteration: 198823 [mu s]
	Time per residual norm calculation: 1262.000000 [mu s]
	Time per iteration and DOF: 3.940437 [ns]
	Retrieve results bandwidth 1.778000 [GByte/s]
[OGL LOG][Proc: 0]nuTilda: solve_multi_gpu: 469.544 [ms]
BJcudaGKOBiCGStab:  Solving for nuTilda, Initial residual = 0.009592545000629376, Final residual = 0.0007808461644987426, No Iterations 2
ExecutionTime = 4829.31 s  ClockTime = 4846 s

Time = 100

velocityDampingConstraint velocityDamping damped 0 (0%) of cells, with max limit 300
[OGL LOG][Proc: 0]: global_index_init: 0.275 [ms]
[OGL LOG][Proc: 0]Ux_local_coeffs: call_update: 0 [ms]
[OGL LOG][Proc: 0]Ux_non_local_coeffs: call_update: 0 [ms]
[OGL LOG][Proc: 0]Ux: update_local_matrix_data: 383.032 [ms]
[OGL LOG][Proc: 0]Ux: update_non_local_matrix_data: 1.035 [ms]
[OGL LOG][Proc: 0]Ux_matrix: call_update: 7.396 [ms]
[OGL LOG][Proc: 0]Ux_rhs: call_update: 17.761 [ms]
[OGL LOG][Preconditioner.H:121] Generate preconditioner BJ MaxBlockSize 1
[OGL LOG][Proc: 0]Ux: init_precond: 3.556 [ms]
[OGL LOG][StoppingCriterion.H:239] Creating stopping criterion with minIter 6 frequency 1
[OGL LOG][Proc: 0]Ux: generate_solver: 0.014 [ms]
[OGL LOG][Proc: 0]Ux: solve: 362.173 [ms]
[OGL LOG][Proc: 0]Ux: copy_x_back: 28.709 [ms]
[OGL LOG][lduLduBase.H:330] 
Statistics:
	Time per iteration: 120724 [mu s]
	Time per residual norm calculation: 1596.000000 [mu s]
	Time per iteration and DOF: 2.392607 [ns]
	Retrieve results bandwidth 1.763000 [GByte/s]
[OGL LOG][Proc: 0]Ux: solve_multi_gpu: 424.676 [ms]
BJcudaGKOBiCGStab:  Solving for Ux, Initial residual = 0.005269269683073369, Final residual = 0.0003743905461847299, No Iterations 3
[OGL LOG][Proc: 0]: global_index_init: 0.242 [ms]
[OGL LOG][Proc: 0]Uy_local_coeffs: call_update: 0 [ms]
[OGL LOG][Proc: 0]Uy_non_local_coeffs: call_update: 0 [ms]
[OGL LOG][Proc: 0]Uy: update_local_matrix_data: 379.262 [ms]
[OGL LOG][Proc: 0]Uy: update_non_local_matrix_data: 1.162 [ms]
[OGL LOG][Proc: 0]Uy_matrix: call_update: 7.254 [ms]
[OGL LOG][Proc: 0]Uy_rhs: call_update: 17.787 [ms]
[OGL LOG][Preconditioner.H:121] Generate preconditioner BJ MaxBlockSize 1
[OGL LOG][Proc: 0]Uy: init_precond: 3.635 [ms]
[OGL LOG][StoppingCriterion.H:239] Creating stopping criterion with minIter 4 frequency 1
[OGL LOG][Proc: 0]Uy: generate_solver: 0.015 [ms]
[OGL LOG][Proc: 0]Uy: solve: 366.833 [ms]
[OGL LOG][Proc: 0]Uy: copy_x_back: 28.306 [ms]
[OGL LOG][lduLduBase.H:330] 
Statistics:
	Time per iteration: 91708 [mu s]
	Time per residual norm calculation: 1713.000000 [mu s]
	Time per iteration and DOF: 1.817544 [ns]
	Retrieve results bandwidth 1.788000 [GByte/s]
[OGL LOG][Proc: 0]Uy: solve_multi_gpu: 428.632 [ms]
BJcudaGKOBiCGStab:  Solving for Uy, Initial residual = 0.02106786374459355, Final residual = 0.0009067274647837814, No Iterations 4
[OGL LOG][Proc: 0]: global_index_init: 0.235 [ms]
[OGL LOG][Proc: 0]Uz_local_coeffs: call_update: 0 [ms]
[OGL LOG][Proc: 0]Uz_non_local_coeffs: call_update: 0 [ms]
[OGL LOG][Proc: 0]Uz: update_local_matrix_data: 380.017 [ms]
[OGL LOG][Proc: 0]Uz: update_non_local_matrix_data: 1.161 [ms]
[OGL LOG][Proc: 0]Uz_matrix: call_update: 7.464 [ms]
[OGL LOG][Proc: 0]Uz_rhs: call_update: 17.699 [ms]
[OGL LOG][Preconditioner.H:121] Generate preconditioner BJ MaxBlockSize 1
[OGL LOG][Proc: 0]Uz: init_precond: 3.692 [ms]
[OGL LOG][StoppingCriterion.H:239] Creating stopping criterion with minIter 4 frequency 1
[OGL LOG][Proc: 0]Uz: generate_solver: 0.014 [ms]
[OGL LOG][Proc: 0]Uz: solve: 367.271 [ms]
[OGL LOG][Proc: 0]Uz: copy_x_back: 28.257 [ms]
[OGL LOG][lduLduBase.H:330] 
Statistics:
	Time per iteration: 91817 [mu s]
	Time per residual norm calculation: 1705.000000 [mu s]
	Time per iteration and DOF: 1.819705 [ns]
	Retrieve results bandwidth 1.791000 [GByte/s]
[OGL LOG][Proc: 0]Uz: solve_multi_gpu: 428.8 [ms]
BJcudaGKOBiCGStab:  Solving for Uz, Initial residual = 0.02301905255448404, Final residual = 0.001011723792921274, No Iterations 4
[OGL LOG][Proc: 0]: global_index_init: 6.262 [ms]
[OGL LOG][Proc: 0]p_local_coeffs: call_update: 0 [ms]
[OGL LOG][Proc: 0]p_non_local_coeffs: call_update: 0 [ms]
[OGL LOG][Proc: 0]p: update_local_matrix_data: 289.278 [ms]
[OGL LOG][Proc: 0]p: update_non_local_matrix_data: 1.14 [ms]
[OGL LOG][Proc: 0]p_matrix: call_update: 5.857 [ms]
[OGL LOG][Proc: 0]p_rhs: call_update: 18.109 [ms]
[OGL LOG][Preconditioner.H:346] Generate preconditioner Multigrid MaxLevels 9 MinCoarseRows 10 ZeroGuess 1 Cycle v
[OGL LOG][Proc: 0]p: init_precond: 1364.738 [ms]
[OGL LOG][StoppingCriterion.H:239] Creating stopping criterion with minIter 12 frequency 1
[OGL LOG][Proc: 0]p: generate_solver: 0.01 [ms]
[OGL LOG][Proc: 0]p: solve: 1369.336 [ms]
[OGL LOG][Proc: 0]p: copy_x_back: 28.513 [ms]
[OGL LOG][lduLduBase.H:330] 
Statistics:
	Time per iteration: 47218 [mu s]
	Time per residual norm calculation: 1343.000000 [mu s]
	Time per iteration and DOF: 0.935805 [ns]
	Retrieve results bandwidth 1.775000 [GByte/s]
[OGL LOG][Proc: 0]p: solve_multi_gpu: 2839.743 [ms]
MultigridcudaGKOCG:  Solving for p, Initial residual = 0.09567321527509125, Final residual = 0.0008895371682287297, No Iterations 29
time step continuity errors : sum local = 0.0009738327891501997, global = -7.188680398484957e-05, cumulative = 0.002013589847304463
[OGL LOG][Proc: 0]: global_index_init: 0.018 [ms]
[OGL LOG][Proc: 0]nuTilda_local_coeffs: call_update: 0 [ms]
[OGL LOG][Proc: 0]nuTilda_non_local_coeffs: call_update: 0 [ms]
[OGL LOG][Proc: 0]nuTilda: update_local_matrix_data: 371.837 [ms]
[OGL LOG][Proc: 0]nuTilda: update_non_local_matrix_data: 1.151 [ms]
[OGL LOG][Proc: 0]nuTilda_matrix: call_update: 6.282 [ms]
[OGL LOG][Proc: 0]nuTilda_rhs: call_update: 17.931 [ms]
[OGL LOG][Preconditioner.H:121] Generate preconditioner BJ MaxBlockSize 1
[OGL LOG][Proc: 0]nuTilda: init_precond: 4.166 [ms]
[OGL LOG][StoppingCriterion.H:239] Creating stopping criterion with minIter 3 frequency 1
[OGL LOG][Proc: 0]nuTilda: generate_solver: 0.014 [ms]
[OGL LOG][Proc: 0]nuTilda: solve: 355.877 [ms]
[OGL LOG][Proc: 0]nuTilda: copy_x_back: 28.606 [ms]
[OGL LOG][lduLduBase.H:330] 
Statistics:
	Time per iteration: 177938 [mu s]
	Time per residual norm calculation: 1291.000000 [mu s]
	Time per iteration and DOF: 3.526521 [ns]
	Retrieve results bandwidth 1.769000 [GByte/s]
[OGL LOG][Proc: 0]nuTilda: solve_multi_gpu: 418.621 [ms]
BJcudaGKOBiCGStab:  Solving for nuTilda, Initial residual = 0.008145963580736612, Final residual = 0.000681869444102502, No Iterations 2
ExecutionTime = 4861.57 s  ClockTime = 4878 s

End

Finalising parallel run
