/*---------------------------------------------------------------------------*\
| =========                 |                                                 |
| \\      /  F ield         | OpenFOAM: The Open Source CFD Toolbox           |
|  \\    /   O peration     | Version:  2212                                  |
|   \\  /    A nd           | Website:  www.openfoam.com                      |
|    \\/     M anipulation  |                                                 |
\*---------------------------------------------------------------------------*/
Build  : 5614a57-20230228 OPENFOAM=2212 patch=230110 version=v2212
Arch   : "LSB;label=32;scalar=64"
Exec   : icoFoam -parallel -case /home/greole/data/code/exasim-project/micro_benchmarks/LidDrivenCavity3D/workspace/0b037d67e3ddc92935cc7c0019f55160/case
Date   : Jul 02 2023
Time   : 02:00:10
Host   : guyot
PID    : 2326336
I/O    : uncollated
Case   : /home/greole/data/code/exasim-project/micro_benchmarks/LidDrivenCavity3D/workspace/0b037d67e3ddc92935cc7c0019f55160/case
nProcs : 32
Hosts  :
(
    (guyot 32)
)
Pstream initialized with:
    floatTransfer      : 0
    nProcsSimpleSum    : 0
    commsType          : nonBlocking
    polling iterations : 0
trapFpe: Floating point exception trapping enabled (FOAM_SIGFPE).
fileModificationChecking : Monitoring run-time modified files using timeStampMaster (fileModificationSkew 5, maxFileModificationPolls 20)
allowSystemOperations : Allowing user-supplied system call operations

// * * * * * * * * * * * * * * * * * * * * * * * * * * * * * * * * * * * * * //
Create time

--> FOAM Warning : 
    From void* Foam::dlLibraryTable::openLibrary(const Foam::fileName&, bool)
    in file db/dynamicLibrary/dlLibraryTable/dlLibraryTable.C at line 188
    Could not load "libpetscFoam.so"
libpetscFoam.so: cannot open shared object file: No such file or directory
Create mesh for time = 0


PISO: Operating solver in PISO mode

Reading transportProperties

Reading field p

Reading field U

Reading/calculating face flux field phi


Starting time loop

Time = 0.000125

Courant Number mean: 8.02505e-18 max: 4.85723e-14
[INFO] MatrixAssemblyU: 2080.73 [ms]
DILUPBiCGStab:  Solving for Ux, Initial residual = 1, Final residual = 0.0215184, No Iterations 5
DILUPBiCGStab:  Solving for Uy:  solution singularity
DILUPBiCGStab:  Solving for Uz:  solution singularity
[INFO] MomentumPredictor: 7073.54 [ms]
[INFO] MatrixAssemblyPI: 2153.32 [ms]
[INFO] AdjustPhi: 109.875 [ms]
[INFO] ConstrainPressure: 0.01 [ms]
[INFO] MatrixAssemblyPII: 621.413 [ms]
nonePCG:  Solving for p, Initial residual = 1, Final residual = 9.90332e-05, No Iterations 3251
[INFO] SolveP: 686963 [ms]
time step continuity errors : sum local = 2.51223e-09, global = 8.09506e-23, cumulative = 8.09506e-23
[INFO] ContinuityError: 204.362 [ms]
[INFO] CorrectBoundary: 4.693 [ms]
[INFO] PISOStep: 690784 [ms]
[INFO] MatrixAssemblyPI: 2043.86 [ms]
[INFO] AdjustPhi: 128.397 [ms]
[INFO] ConstrainPressure: 0.014 [ms]
[INFO] MatrixAssemblyPII: 624.051 [ms]
nonePCG:  Solving for p, Initial residual = 0.822079, Final residual = 9.90265e-05, No Iterations 3237
[INFO] SolveP: 684586 [ms]
time step continuity errors : sum local = 3.02658e-09, global = 4.91437e-22, cumulative = 5.72388e-22
[INFO] ContinuityError: 202.948 [ms]
[INFO] CorrectBoundary: 8.333 [ms]
[INFO] PISOStep: 688295 [ms]
[INFO] TimeStep: 1.38845e+06 [ms]
ExecutionTime = 1379.53 s  ClockTime = 1392 s

Time = 0.00025

Courant Number mean: 0.0108529 max: 0.437705
[INFO] MatrixAssemblyU: 1917.49 [ms]
DILUPBiCGStab:  Solving for Ux, Initial residual = 0.108168, Final residual = 0.0135461, No Iterations 5
DILUPBiCGStab:  Solving for Uy, Initial residual = 0.484635, Final residual = 0.0533658, No Iterations 5
DILUPBiCGStab:  Solving for Uz, Initial residual = 0.990101, Final residual = 0.120239, No Iterations 5
[INFO] MomentumPredictor: 13867 [ms]
[INFO] MatrixAssemblyPI: 2165.27 [ms]
[INFO] AdjustPhi: 125.982 [ms]
[INFO] ConstrainPressure: 0.003 [ms]
[INFO] MatrixAssemblyPII: 636.7 [ms]
nonePCG:  Solving for p, Initial residual = 0.908271, Final residual = 9.8373e-05, No Iterations 3186
[INFO] SolveP: 673522 [ms]
time step continuity errors : sum local = 7.06056e-09, global = 2.05241e-22, cumulative = 7.77629e-22
[INFO] ContinuityError: 203.27 [ms]
[INFO] CorrectBoundary: 4.228 [ms]
[INFO] PISOStep: 677372 [ms]
[INFO] MatrixAssemblyPI: 2053.33 [ms]
[INFO] AdjustPhi: 121.909 [ms]
[INFO] ConstrainPressure: 0.011 [ms]
[INFO] MatrixAssemblyPII: 621.085 [ms]
nonePCG:  Solving for p, Initial residual = 0.859111, Final residual = 9.8785e-05, No Iterations 3182
[INFO] SolveP: 673079 [ms]
time step continuity errors : sum local = 7.22468e-09, global = 4.69134e-23, cumulative = 8.24542e-22
[INFO] ContinuityError: 201.812 [ms]
[INFO] CorrectBoundary: 6.844 [ms]
[INFO] PISOStep: 676807 [ms]
[INFO] TimeStep: 1.37017e+06 [ms]
ExecutionTime = 2737.32 s  ClockTime = 2762 s

Time = 0.000375

Courant Number mean: 0.0169392 max: 0.511586
[INFO] MatrixAssemblyU: 1916.71 [ms]
DILUPBiCGStab:  Solving for Ux, Initial residual = 0.0536851, Final residual = 0.00548712, No Iterations 5
DILUPBiCGStab:  Solving for Uy, Initial residual = 0.261923, Final residual = 0.0267088, No Iterations 5
DILUPBiCGStab:  Solving for Uz, Initial residual = 0.870032, Final residual = 0.0867049, No Iterations 5
[INFO] MomentumPredictor: 13866.4 [ms]
[INFO] MatrixAssemblyPI: 2166.18 [ms]
[INFO] AdjustPhi: 126.471 [ms]
[INFO] ConstrainPressure: 0.003 [ms]
[INFO] MatrixAssemblyPII: 638.605 [ms]
nonePCG:  Solving for p, Initial residual = 0.941472, Final residual = 9.90694e-05, No Iterations 1537
[INFO] SolveP: 325112 [ms]
time step continuity errors : sum local = 9.0854e-09, global = 7.93085e-22, cumulative = 1.61763e-21
[INFO] ContinuityError: 202.415 [ms]
[INFO] CorrectBoundary: 2.031 [ms]
[INFO] PISOStep: 328965 [ms]
[INFO] MatrixAssemblyPI: 2063.5 [ms]
[INFO] AdjustPhi: 113.338 [ms]
[INFO] ConstrainPressure: 0.013 [ms]
[INFO] MatrixAssemblyPII: 620.294 [ms]
nonePCG:  Solving for p, Initial residual = 0.908932, Final residual = 9.99414e-05, No Iterations 1534
[INFO] SolveP: 324598 [ms]
time step continuity errors : sum local = 8.93461e-09, global = 4.20114e-22, cumulative = 2.03774e-21
[INFO] ContinuityError: 203.438 [ms]
[INFO] CorrectBoundary: 5.788 [ms]
[INFO] PISOStep: 328330 [ms]
[INFO] TimeStep: 673287 [ms]
ExecutionTime = 3404.53 s  ClockTime = 3436 s

Time = 0.0005

Courant Number mean: 0.0205469 max: 0.477562
[INFO] MatrixAssemblyU: 1913.12 [ms]
DILUPBiCGStab:  Solving for Ux, Initial residual = 0.041627, Final residual = 0.00507902, No Iterations 5
DILUPBiCGStab:  Solving for Uy, Initial residual = 0.213998, Final residual = 0.0244207, No Iterations 5
DILUPBiCGStab:  Solving for Uz, Initial residual = 0.783594, Final residual = 0.0645161, No Iterations 5
[INFO] MomentumPredictor: 13878.8 [ms]
[INFO] MatrixAssemblyPI: 2162.99 [ms]
[INFO] AdjustPhi: 129.892 [ms]
[INFO] ConstrainPressure: 0.003 [ms]
[INFO] MatrixAssemblyPII: 637.164 [ms]
nonePCG:  Solving for p, Initial residual = 0.938283, Final residual = 9.92275e-05, No Iterations 1533
[INFO] SolveP: 324256 [ms]
time step continuity errors : sum local = 1.13242e-08, global = 6.27933e-22, cumulative = 2.66568e-21
[INFO] ContinuityError: 200.714 [ms]
[INFO] CorrectBoundary: 8.233 [ms]
[INFO] PISOStep: 328109 [ms]
[INFO] MatrixAssemblyPI: 2044.17 [ms]
[INFO] AdjustPhi: 130.207 [ms]
[INFO] ConstrainPressure: 0.011 [ms]
[INFO] MatrixAssemblyPII: 618.315 [ms]
nonePCG:  Solving for p, Initial residual = 0.880463, Final residual = 9.90669e-05, No Iterations 1512
[INFO] SolveP: 319988 [ms]
time step continuity errors : sum local = 1.11685e-08, global = 9.18523e-22, cumulative = 3.5842e-21
[INFO] ContinuityError: 201.286 [ms]
[INFO] CorrectBoundary: 6.821 [ms]
[INFO] PISOStep: 323716 [ms]
[INFO] TimeStep: 667828 [ms]
ExecutionTime = 4066.37 s  ClockTime = 4104 s

Time = 0.000625

Courant Number mean: 0.023617 max: 0.556183
[INFO] MatrixAssemblyU: 1911.36 [ms]
DILUPBiCGStab:  Solving for Ux, Initial residual = 0.0376342, Final residual = 0.00462344, No Iterations 5
DILUPBiCGStab:  Solving for Uy, Initial residual = 0.184907, Final residual = 0.0203094, No Iterations 5
DILUPBiCGStab:  Solving for Uz, Initial residual = 0.756324, Final residual = 0.0562772, No Iterations 5
[INFO] MomentumPredictor: 13873.3 [ms]
[INFO] MatrixAssemblyPI: 2162.7 [ms]
[INFO] AdjustPhi: 129.652 [ms]
[INFO] ConstrainPressure: 0.003 [ms]
[INFO] MatrixAssemblyPII: 636.61 [ms]
nonePCG:  Solving for p, Initial residual = 0.95442, Final residual = 9.97851e-05, No Iterations 3094
[INFO] SolveP: 654120 [ms]
time step continuity errors : sum local = 1.25089e-08, global = 3.95366e-22, cumulative = 3.97956e-21
[INFO] ContinuityError: 204.54 [ms]
[INFO] CorrectBoundary: 7.558 [ms]
[INFO] PISOStep: 657973 [ms]
[INFO] MatrixAssemblyPI: 2060.73 [ms]
[INFO] AdjustPhi: 113.692 [ms]
[INFO] ConstrainPressure: 0.007 [ms]
[INFO] MatrixAssemblyPII: 622.414 [ms]
nonePCG:  Solving for p, Initial residual = 0.915201, Final residual = 9.97688e-05, No Iterations 3088
[INFO] SolveP: 653138 [ms]
time step continuity errors : sum local = 1.24322e-08, global = 8.21248e-22, cumulative = 4.80081e-21
[INFO] ContinuityError: 202.226 [ms]
[INFO] CorrectBoundary: 5.147 [ms]
[INFO] PISOStep: 656865 [ms]
[INFO] TimeStep: 1.33083e+06 [ms]
ExecutionTime = 5385.06 s  ClockTime = 5434 s

Time = 0.00075

Courant Number mean: 0.0259525 max: 0.483355
[INFO] MatrixAssemblyU: 1918.21 [ms]
DILUPBiCGStab:  Solving for Ux, Initial residual = 0.0353975, Final residual = 0.00439578, No Iterations 5
DILUPBiCGStab:  Solving for Uy, Initial residual = 0.171568, Final residual = 0.0174391, No Iterations 5
DILUPBiCGStab:  Solving for Uz, Initial residual = 0.697445, Final residual = 0.0468622, No Iterations 5
[INFO] MomentumPredictor: 13868 [ms]
[INFO] MatrixAssemblyPI: 2160.58 [ms]
[INFO] AdjustPhi: 131.602 [ms]
[INFO] ConstrainPressure: 0.003 [ms]
[INFO] MatrixAssemblyPII: 635.511 [ms]
nonePCG:  Solving for p, Initial residual = 0.951504, Final residual = 9.96775e-05, No Iterations 3093
[INFO] SolveP: 653845 [ms]
time step continuity errors : sum local = 1.4451e-08, global = 8.74731e-22, cumulative = 5.67554e-21
[INFO] ContinuityError: 204.391 [ms]
[INFO] CorrectBoundary: 5.605 [ms]
[INFO] PISOStep: 657698 [ms]
[INFO] MatrixAssemblyPI: 2053.73 [ms]
[INFO] AdjustPhi: 119.94 [ms]
[INFO] ConstrainPressure: 0.01 [ms]
[INFO] MatrixAssemblyPII: 618.681 [ms]
nonePCG:  Solving for p, Initial residual = 0.891312, Final residual = 9.94887e-05, No Iterations 3089
[INFO] SolveP: 653325 [ms]
time step continuity errors : sum local = 1.46513e-08, global = 9.24122e-22, cumulative = 6.59967e-21
[INFO] ContinuityError: 203.231 [ms]
[INFO] CorrectBoundary: 10.942 [ms]
[INFO] PISOStep: 657051 [ms]
[INFO] TimeStep: 1.33075e+06 [ms]
ExecutionTime = 6703.73 s  ClockTime = 6765 s

Time = 0.000875

Courant Number mean: 0.0281461 max: 0.61245
[INFO] MatrixAssemblyU: 1911.99 [ms]
DILUPBiCGStab:  Solving for Ux, Initial residual = 0.0350559, Final residual = 0.004176, No Iterations 5
DILUPBiCGStab:  Solving for Uy, Initial residual = 0.176415, Final residual = 0.0165555, No Iterations 5
DILUPBiCGStab:  Solving for Uz, Initial residual = 0.69522, Final residual = 0.0424025, No Iterations 5
[INFO] MomentumPredictor: 13874.9 [ms]
[INFO] MatrixAssemblyPI: 2169.04 [ms]
[INFO] AdjustPhi: 122.074 [ms]
[INFO] ConstrainPressure: 0.003 [ms]
[INFO] MatrixAssemblyPII: 633.504 [ms]
nonePCG:  Solving for p, Initial residual = 0.962336, Final residual = 9.91294e-05, No Iterations 1506
[INFO] SolveP: 318624 [ms]
time step continuity errors : sum local = 1.79144e-08, global = 5.40769e-22, cumulative = 7.14043e-21
[INFO] ContinuityError: 200.79 [ms]
[INFO] CorrectBoundary: 9.783 [ms]
[INFO] PISOStep: 322476 [ms]
[INFO] MatrixAssemblyPI: 2054.47 [ms]
[INFO] AdjustPhi: 121.506 [ms]
[INFO] ConstrainPressure: 0.012 [ms]
[INFO] MatrixAssemblyPII: 620.3 [ms]
nonePCG:  Solving for p, Initial residual = 0.917686, Final residual = 9.88859e-05, No Iterations 1487
[INFO] SolveP: 314831 [ms]
time step continuity errors : sum local = 1.67048e-08, global = 1.77689e-22, cumulative = 7.31812e-21
[INFO] ContinuityError: 201.8 [ms]
[INFO] CorrectBoundary: 13.324 [ms]
[INFO] PISOStep: 318560 [ms]
[INFO] TimeStep: 657037 [ms]
ExecutionTime = 7354.84 s  ClockTime = 7422 s

Time = 0.001

Courant Number mean: 0.0298921 max: 0.491037
[INFO] MatrixAssemblyU: 1916.31 [ms]
DILUPBiCGStab:  Solving for Ux, Initial residual = 0.0360865, Final residual = 0.00400668, No Iterations 5
DILUPBiCGStab:  Solving for Uy, Initial residual = 0.170509, Final residual = 0.0144737, No Iterations 5
DILUPBiCGStab:  Solving for Uz, Initial residual = 0.687201, Final residual = 0.0426097, No Iterations 5
[INFO] MomentumPredictor: 13867.3 [ms]
[INFO] MatrixAssemblyPI: 2167.75 [ms]
[INFO] AdjustPhi: 125.125 [ms]
[INFO] ConstrainPressure: 0.003 [ms]
[INFO] MatrixAssemblyPII: 636.746 [ms]
nonePCG:  Solving for p, Initial residual = 0.960265, Final residual = 9.9444e-05, No Iterations 3073
[INFO] SolveP: 649712 [ms]
time step continuity errors : sum local = 1.8762e-08, global = 8.35394e-22, cumulative = 8.15352e-21
[INFO] ContinuityError: 200.077 [ms]
[INFO] CorrectBoundary: 5.074 [ms]
[INFO] PISOStep: 653564 [ms]
[INFO] MatrixAssemblyPI: 2062.66 [ms]
[INFO] AdjustPhi: 120.696 [ms]
[INFO] ConstrainPressure: 0.012 [ms]
[INFO] MatrixAssemblyPII: 621.524 [ms]
nonePCG:  Solving for p, Initial residual = 0.898093, Final residual = 9.82943e-05, No Iterations 3071
[INFO] SolveP: 649422 [ms]
time step continuity errors : sum local = 1.88202e-08, global = 2.49376e-22, cumulative = 8.40289e-21
[INFO] ContinuityError: 201.828 [ms]
[INFO] CorrectBoundary: 4.315 [ms]
[INFO] PISOStep: 653160 [ms]
[INFO] TimeStep: 1.32272e+06 [ms]
ExecutionTime = 8665.5 s  ClockTime = 8745 s

Time = 0.001125

Courant Number mean: 0.0316953 max: 0.696041
[INFO] MatrixAssemblyU: 1918.02 [ms]
DILUPBiCGStab:  Solving for Ux, Initial residual = 0.0374706, Final residual = 0.00382208, No Iterations 5
DILUPBiCGStab:  Solving for Uy, Initial residual = 0.187084, Final residual = 0.0147538, No Iterations 5
DILUPBiCGStab:  Solving for Uz, Initial residual = 0.694038, Final residual = 0.0380994, No Iterations 5
[INFO] MomentumPredictor: 13871.5 [ms]
[INFO] MatrixAssemblyPI: 2157.66 [ms]
[INFO] AdjustPhi: 131.955 [ms]
[INFO] ConstrainPressure: 0.002 [ms]
[INFO] MatrixAssemblyPII: 634.566 [ms]
nonePCG:  Solving for p, Initial residual = 0.968109, Final residual = 9.78023e-05, No Iterations 3071
[INFO] SolveP: 649221 [ms]
time step continuity errors : sum local = 2.11403e-08, global = 1.13821e-21, cumulative = 9.54111e-21
[INFO] ContinuityError: 202.33 [ms]
[INFO] CorrectBoundary: 5.833 [ms]
[INFO] PISOStep: 653072 [ms]
[INFO] MatrixAssemblyPI: 2055.09 [ms]
[INFO] AdjustPhi: 120.715 [ms]
[INFO] ConstrainPressure: 0.005 [ms]
[INFO] MatrixAssemblyPII: 620.706 [ms]
nonePCG:  Solving for p, Initial residual = 0.918599, Final residual = 9.79555e-05, No Iterations 3069
[INFO] SolveP: 649136 [ms]
time step continuity errors : sum local = 2.11469e-08, global = -1.03475e-22, cumulative = 9.43763e-21
[INFO] ContinuityError: 202.526 [ms]
[INFO] CorrectBoundary: 4.273 [ms]
[INFO] PISOStep: 652863 [ms]
[INFO] TimeStep: 1.32193e+06 [ms]
ExecutionTime = 9975.38 s  ClockTime = 10067 s

Time = 0.00125

Courant Number mean: 0.0331077 max: 0.507095
[INFO] MatrixAssemblyU: 1913.11 [ms]
DILUPBiCGStab:  Solving for Ux, Initial residual = 0.0407833, Final residual = 0.00387841, No Iterations 5
DILUPBiCGStab:  Solving for Uy, Initial residual = 0.185786, Final residual = 0.0130652, No Iterations 5
DILUPBiCGStab:  Solving for Uz, Initial residual = 0.693236, Final residual = 0.0368763, No Iterations 5
[INFO] MomentumPredictor: 13874.4 [ms]
[INFO] MatrixAssemblyPI: 2148.08 [ms]
[INFO] AdjustPhi: 144.016 [ms]
[INFO] ConstrainPressure: 0.003 [ms]
[INFO] MatrixAssemblyPII: 633.503 [ms]
nonePCG:  Solving for p, Initial residual = 0.967483, Final residual = 9.9018e-05, No Iterations 3071
[INFO] SolveP: 649227 [ms]
time step continuity errors : sum local = 2.49238e-08, global = 2.35391e-22, cumulative = 9.67302e-21
[INFO] ContinuityError: 202.193 [ms]
[INFO] CorrectBoundary: 4.68 [ms]
[INFO] PISOStep: 653079 [ms]
[INFO] MatrixAssemblyPI: 2054.97 [ms]
[INFO] AdjustPhi: 120.682 [ms]
[INFO] ConstrainPressure: 0.013 [ms]
[INFO] MatrixAssemblyPII: 623.861 [ms]
nonePCG:  Solving for p, Initial residual = 0.903731, Final residual = 9.96494e-05, No Iterations 3068
[INFO] SolveP: 648856 [ms]
time step continuity errors : sum local = 2.54202e-08, global = 2.15558e-22, cumulative = 9.88858e-21
[INFO] ContinuityError: 202.964 [ms]
[INFO] CorrectBoundary: 9.138 [ms]
[INFO] PISOStep: 652587 [ms]
[INFO] TimeStep: 1.32167e+06 [ms]
ExecutionTime = 11285.1 s  ClockTime = 11388 s

Time = 0.001375

Courant Number mean: 0.0347058 max: 0.825583
[INFO] MatrixAssemblyU: 1918.27 [ms]
DILUPBiCGStab:  Solving for Ux, Initial residual = 0.0435225, Final residual = 0.00371004, No Iterations 5
DILUPBiCGStab:  Solving for Uy, Initial residual = 0.20941, Final residual = 0.0140914, No Iterations 5
DILUPBiCGStab:  Solving for Uz, Initial residual = 0.706651, Final residual = 0.0361762, No Iterations 5
[INFO] MomentumPredictor: 13873.3 [ms]
[INFO] MatrixAssemblyPI: 2158.22 [ms]
[INFO] AdjustPhi: 133.641 [ms]
[INFO] ConstrainPressure: 0.003 [ms]
[INFO] MatrixAssemblyPII: 636.706 [ms]
nonePCG:  Solving for p, Initial residual = 0.973063, Final residual = 9.86704e-05, No Iterations 3070
[INFO] SolveP: 648213 [ms]
time step continuity errors : sum local = 2.88239e-08, global = -1.90245e-22, cumulative = 9.69834e-21
[INFO] ContinuityError: 198.409 [ms]
[INFO] CorrectBoundary: 6.513 [ms]
[INFO] PISOStep: 652062 [ms]
[INFO] MatrixAssemblyPI: 2049.01 [ms]
[INFO] AdjustPhi: 123.848 [ms]
[INFO] ConstrainPressure: 0.012 [ms]
[INFO] MatrixAssemblyPII: 616.677 [ms]
nonePCG:  Solving for p, Initial residual = 0.919443, Final residual = 9.8022e-05, No Iterations 3068
[INFO] SolveP: 647642 [ms]
time step continuity errors : sum local = 2.86546e-08, global = 3.28068e-22, cumulative = 1.00264e-20
[INFO] ContinuityError: 201.526 [ms]
[INFO] CorrectBoundary: 10.668 [ms]
[INFO] PISOStep: 651364 [ms]
[INFO] TimeStep: 1.31943e+06 [ms]
ExecutionTime = 12592.5 s  ClockTime = 12708 s

Time = 0.0015

Courant Number mean: 0.0359049 max: 0.59756
[INFO] MatrixAssemblyU: 1909.45 [ms]
DILUPBiCGStab:  Solving for Ux, Initial residual = 0.0489526, Final residual = 0.00391311, No Iterations 5
DILUPBiCGStab:  Solving for Uy, Initial residual = 0.213716, Final residual = 0.0129345, No Iterations 5
DILUPBiCGStab:  Solving for Uz, Initial residual = 0.710305, Final residual = 0.0357474, No Iterations 5
[INFO] MomentumPredictor: 13852.4 [ms]
[INFO] MatrixAssemblyPI: 2156.58 [ms]
[INFO] AdjustPhi: 131.183 [ms]
[INFO] ConstrainPressure: 0.003 [ms]
[INFO] MatrixAssemblyPII: 637.29 [ms]
nonePCG:  Solving for p, Initial residual = 0.973312, Final residual = 9.89279e-05, No Iterations 3071
[INFO] SolveP: 648069 [ms]
time step continuity errors : sum local = 3.38933e-08, global = 1.48061e-21, cumulative = 1.1507e-20
[INFO] ContinuityError: 202.064 [ms]
[INFO] CorrectBoundary: 6.418 [ms]
[INFO] PISOStep: 651914 [ms]
[INFO] MatrixAssemblyPI: 2041.52 [ms]
[INFO] AdjustPhi: 129.568 [ms]
[INFO] ConstrainPressure: 0.011 [ms]
[INFO] MatrixAssemblyPII: 617.594 [ms]
nonePCG:  Solving for p, Initial residual = 0.908595, Final residual = 9.84339e-05, No Iterations 3068
[INFO] SolveP: 647477 [ms]
time step continuity errors : sum local = 3.4135e-08, global = 3.0364e-22, cumulative = 1.18107e-20
[INFO] ContinuityError: 202.403 [ms]
[INFO] CorrectBoundary: 12.304 [ms]
[INFO] PISOStep: 651198 [ms]
[INFO] TimeStep: 1.31909e+06 [ms]
ExecutionTime = 13899.7 s  ClockTime = 14027 s

Time = 0.001625

Courant Number mean: 0.0373991 max: 1.14776
[INFO] MatrixAssemblyU: 1917.62 [ms]
DILUPBiCGStab:  Solving for Ux, Initial residual = 0.0535678, Final residual = 0.0038525, No Iterations 5
DILUPBiCGStab:  Solving for Uy, Initial residual = 0.24205, Final residual = 0.0142158, No Iterations 5
DILUPBiCGStab:  Solving for Uz, Initial residual = 0.72225, Final residual = 0.0354794, No Iterations 5
[INFO] MomentumPredictor: 13836.9 [ms]
[INFO] MatrixAssemblyPI: 2165.12 [ms]
[INFO] AdjustPhi: 122.805 [ms]
[INFO] ConstrainPressure: 0.002 [ms]
[INFO] MatrixAssemblyPII: 635.766 [ms]
nonePCG:  Solving for p, Initial residual = 0.976875, Final residual = 9.89911e-05, No Iterations 3071
[INFO] SolveP: 647866 [ms]
time step continuity errors : sum local = 3.97369e-08, global = 6.50681e-22, cumulative = 1.24613e-20
[INFO] ContinuityError: 201.48 [ms]
[INFO] CorrectBoundary: 8.665 [ms]
[INFO] PISOStep: 651713 [ms]
[INFO] MatrixAssemblyPI: 2057 [ms]
[INFO] AdjustPhi: 115.349 [ms]
[INFO] ConstrainPressure: 0.009 [ms]
[INFO] MatrixAssemblyPII: 620.418 [ms]
nonePCG:  Solving for p, Initial residual = 0.920235, Final residual = 9.89017e-05, No Iterations 3068
[INFO] SolveP: 647400 [ms]
time step continuity errors : sum local = 3.97996e-08, global = 1.21844e-21, cumulative = 1.36798e-20
[INFO] ContinuityError: 204.115 [ms]
[INFO] CorrectBoundary: 6.912 [ms]
[INFO] PISOStep: 651124 [ms]
[INFO] TimeStep: 1.3188e+06 [ms]
ExecutionTime = 15206.6 s  ClockTime = 15346 s

Time = 0.00175

Courant Number mean: 0.0384608 max: 1.02094
[INFO] MatrixAssemblyU: 1921.08 [ms]
DILUPBiCGStab:  Solving for Ux, Initial residual = 0.0615128, Final residual = 0.00415089, No Iterations 5
DILUPBiCGStab:  Solving for Uy, Initial residual = 0.252437, Final residual = 0.0135927, No Iterations 5
DILUPBiCGStab:  Solving for Uz, Initial residual = 0.726591, Final residual = 0.0352456, No Iterations 5
[INFO] MomentumPredictor: 13844.9 [ms]
[INFO] MatrixAssemblyPI: 2159.2 [ms]
[INFO] AdjustPhi: 127.543 [ms]
[INFO] ConstrainPressure: 0.003 [ms]
[INFO] MatrixAssemblyPII: 635.924 [ms]
nonePCG:  Solving for p, Initial residual = 0.977565, Final residual = 9.8908e-05, No Iterations 3073
[INFO] SolveP: 648501 [ms]
time step continuity errors : sum local = 4.68037e-08, global = 9.86309e-22, cumulative = 1.46661e-20
[INFO] ContinuityError: 200.436 [ms]
[INFO] CorrectBoundary: 8.394 [ms]
[INFO] PISOStep: 652344 [ms]
[INFO] MatrixAssemblyPI: 2049.59 [ms]
[INFO] AdjustPhi: 122.119 [ms]
[INFO] ConstrainPressure: 0.009 [ms]
[INFO] MatrixAssemblyPII: 621.851 [ms]
nonePCG:  Solving for p, Initial residual = 0.912677, Final residual = 9.88976e-05, No Iterations 3069
[INFO] SolveP: 647882 [ms]
time step continuity errors : sum local = 4.73182e-08, global = -3.03989e-23, cumulative = 1.46357e-20
[INFO] ContinuityError: 201.883 [ms]
[INFO] CorrectBoundary: 14.345 [ms]
[INFO] PISOStep: 651604 [ms]
[INFO] TimeStep: 1.31992e+06 [ms]
ExecutionTime = 16514.6 s  ClockTime = 16666 s

Time = 0.001875

Courant Number mean: 0.0399244 max: 1.68239
[INFO] MatrixAssemblyU: 1914.93 [ms]
DILUPBiCGStab:  Solving for Ux, Initial residual = 0.0684489, Final residual = 0.00423771, No Iterations 5
DILUPBiCGStab:  Solving for Uy, Initial residual = 0.284437, Final residual = 0.014974, No Iterations 5
DILUPBiCGStab:  Solving for Uz, Initial residual = 0.735167, Final residual = 0.0350324, No Iterations 5
[INFO] MomentumPredictor: 13848.7 [ms]
[INFO] MatrixAssemblyPI: 2158.96 [ms]
[INFO] AdjustPhi: 131.131 [ms]
[INFO] ConstrainPressure: 0.002 [ms]
[INFO] MatrixAssemblyPII: 636.25 [ms]
nonePCG:  Solving for p, Initial residual = 0.979674, Final residual = 9.95648e-05, No Iterations 3074
[INFO] SolveP: 648721 [ms]
time step continuity errors : sum local = 5.5544e-08, global = -1.06121e-21, cumulative = 1.35745e-20
[INFO] ContinuityError: 196.908 [ms]
[INFO] CorrectBoundary: 4.752 [ms]
[INFO] PISOStep: 652567 [ms]
[INFO] MatrixAssemblyPI: 2053.19 [ms]
[INFO] AdjustPhi: 119.432 [ms]
[INFO] ConstrainPressure: 0.012 [ms]
[INFO] MatrixAssemblyPII: 621.042 [ms]
nonePCG:  Solving for p, Initial residual = 0.920718, Final residual = 9.95186e-05, No Iterations 3070
[INFO] SolveP: 648050 [ms]
time step continuity errors : sum local = 5.574e-08, global = 1.86502e-21, cumulative = 1.54395e-20
[INFO] ContinuityError: 202.344 [ms]
[INFO] CorrectBoundary: 11.858 [ms]
[INFO] PISOStep: 651772 [ms]
[INFO] TimeStep: 1.32031e+06 [ms]
ExecutionTime = 17823.1 s  ClockTime = 17986 s

Time = 0.002

Courant Number mean: 0.0409188 max: 1.71627
[INFO] MatrixAssemblyU: 1913.94 [ms]
DILUPBiCGStab:  Solving for Ux, Initial residual = 0.0798221, Final residual = 0.00465629, No Iterations 5
DILUPBiCGStab:  Solving for Uy, Initial residual = 0.301133, Final residual = 0.0148152, No Iterations 5
DILUPBiCGStab:  Solving for Uz, Initial residual = 0.738691, Final residual = 0.0348132, No Iterations 5
[INFO] MomentumPredictor: 13864.3 [ms]
[INFO] MatrixAssemblyPI: 2160.76 [ms]
[INFO] AdjustPhi: 125.815 [ms]
[INFO] ConstrainPressure: 0.003 [ms]
[INFO] MatrixAssemblyPII: 636.883 [ms]
nonePCG:  Solving for p, Initial residual = 0.980794, Final residual = 9.92596e-05, No Iterations 3076
[INFO] SolveP: 649046 [ms]
time step continuity errors : sum local = 6.55542e-08, global = 1.28417e-21, cumulative = 1.67237e-20
[INFO] ContinuityError: 199.839 [ms]
[INFO] CorrectBoundary: 7.974 [ms]
[INFO] PISOStep: 652889 [ms]
[INFO] MatrixAssemblyPI: 2054.43 [ms]
[INFO] AdjustPhi: 117.636 [ms]
[INFO] ConstrainPressure: 0.008 [ms]
[INFO] MatrixAssemblyPII: 619.816 [ms]
nonePCG:  Solving for p, Initial residual = 0.915706, Final residual = 9.91324e-05, No Iterations 3072
[INFO] SolveP: 648387 [ms]
time step continuity errors : sum local = 6.61418e-08, global = 6.03454e-22, cumulative = 1.73271e-20
[INFO] ContinuityError: 200.776 [ms]
[INFO] CorrectBoundary: 9.371 [ms]
[INFO] PISOStep: 652108 [ms]
[INFO] TimeStep: 1.32099e+06 [ms]
ExecutionTime = 19132.1 s  ClockTime = 19307 s

Time = 0.002125

Courant Number mean: 0.0424197 max: 2.54795
[INFO] MatrixAssemblyU: 1915.79 [ms]
DILUPBiCGStab:  Solving for Ux, Initial residual = 0.0897582, Final residual = 0.00491425, No Iterations 5
DILUPBiCGStab:  Solving for Uy, Initial residual = 0.336111, Final residual = 0.0162651, No Iterations 5
DILUPBiCGStab:  Solving for Uz, Initial residual = 0.744297, Final residual = 0.0346415, No Iterations 5
[INFO] MomentumPredictor: 13843 [ms]
[INFO] MatrixAssemblyPI: 2160.93 [ms]
[INFO] AdjustPhi: 124.651 [ms]
[INFO] ConstrainPressure: 0.003 [ms]
[INFO] MatrixAssemblyPII: 636.643 [ms]
nonePCG:  Solving for p, Initial residual = 0.981868, Final residual = 9.91997e-05, No Iterations 3078
[INFO] SolveP: 649363 [ms]
time step continuity errors : sum local = 7.78257e-08, global = 1.46388e-21, cumulative = 1.8791e-20
[INFO] ContinuityError: 199.86 [ms]
[INFO] CorrectBoundary: 5.93 [ms]
[INFO] PISOStep: 653205 [ms]
[INFO] MatrixAssemblyPI: 2050.37 [ms]
[INFO] AdjustPhi: 119.98 [ms]
[INFO] ConstrainPressure: 0.012 [ms]
[INFO] MatrixAssemblyPII: 620.636 [ms]
nonePCG:  Solving for p, Initial residual = 0.920741, Final residual = 9.97983e-05, No Iterations 3074
[INFO] SolveP: 648786 [ms]
time step continuity errors : sum local = 7.87183e-08, global = 1.30439e-21, cumulative = 2.00954e-20
[INFO] ContinuityError: 201.335 [ms]
[INFO] CorrectBoundary: 3.597 [ms]
[INFO] PISOStep: 652507 [ms]
[INFO] TimeStep: 1.32168e+06 [ms]
ExecutionTime = 20441.9 s  ClockTime = 20629 s

Time = 0.00225

Courant Number mean: 0.0434264 max: 2.85581
[INFO] MatrixAssemblyU: 1911.49 [ms]
DILUPBiCGStab:  Solving for Ux, Initial residual = 0.106055, Final residual = 0.00552217, No Iterations 5
DILUPBiCGStab:  Solving for Uy, Initial residual = 0.359034, Final residual = 0.0165091, No Iterations 5
DILUPBiCGStab:  Solving for Uz, Initial residual = 0.74675, Final residual = 0.034401, No Iterations 5
[INFO] MomentumPredictor: 13853.8 [ms]
[INFO] MatrixAssemblyPI: 2164.28 [ms]
[INFO] AdjustPhi: 123.087 [ms]
[INFO] ConstrainPressure: 0.002 [ms]
[INFO] MatrixAssemblyPII: 636.754 [ms]
nonePCG:  Solving for p, Initial residual = 0.983071, Final residual = 9.93704e-05, No Iterations 3080
[INFO] SolveP: 650039 [ms]
time step continuity errors : sum local = 9.29688e-08, global = -2.60585e-21, cumulative = 1.74895e-20
[INFO] ContinuityError: 199.088 [ms]
[INFO] CorrectBoundary: 8.809 [ms]
[INFO] PISOStep: 653885 [ms]
[INFO] MatrixAssemblyPI: 2053.17 [ms]
[INFO] AdjustPhi: 117.209 [ms]
[INFO] ConstrainPressure: 0.01 [ms]
[INFO] MatrixAssemblyPII: 621.639 [ms]
nonePCG:  Solving for p, Initial residual = 0.91775, Final residual = 9.88403e-05, No Iterations 3076
[INFO] SolveP: 649281 [ms]
time step continuity errors : sum local = 9.33706e-08, global = 7.10807e-22, cumulative = 1.82003e-20
[INFO] ContinuityError: 203.7 [ms]
[INFO] CorrectBoundary: 9.146 [ms]
[INFO] PISOStep: 653003 [ms]
[INFO] TimeStep: 1.32286e+06 [ms]
ExecutionTime = 21752.8 s  ClockTime = 21952 s

Time = 0.002375

Courant Number mean: 0.0450474 max: 3.95853
[INFO] MatrixAssemblyU: 1915.96 [ms]
DILUPBiCGStab:  Solving for Ux, Initial residual = 0.119843, Final residual = 0.00596963, No Iterations 5
DILUPBiCGStab:  Solving for Uy, Initial residual = 0.395366, Final residual = 0.0180063, No Iterations 5
DILUPBiCGStab:  Solving for Uz, Initial residual = 0.750426, Final residual = 0.034327, No Iterations 5
[INFO] MomentumPredictor: 13845.7 [ms]
[INFO] MatrixAssemblyPI: 2164.39 [ms]
[INFO] AdjustPhi: 126.216 [ms]
[INFO] ConstrainPressure: 0.003 [ms]
[INFO] MatrixAssemblyPII: 636.355 [ms]
nonePCG:  Solving for p, Initial residual = 0.983506, Final residual = 9.93546e-05, No Iterations 3081
[INFO] SolveP: 650084 [ms]
time step continuity errors : sum local = 1.1127e-07, global = 1.39186e-21, cumulative = 1.95922e-20
[INFO] ContinuityError: 198.83 [ms]
[INFO] CorrectBoundary: 9.715 [ms]
[INFO] PISOStep: 653929 [ms]
[INFO] MatrixAssemblyPI: 2046.23 [ms]
[INFO] AdjustPhi: 124.96 [ms]
[INFO] ConstrainPressure: 0.014 [ms]
[INFO] MatrixAssemblyPII: 621.617 [ms]
nonePCG:  Solving for p, Initial residual = 0.920962, Final residual = 9.86617e-05, No Iterations 3078
[INFO] SolveP: 649663 [ms]
time step continuity errors : sum local = 1.11211e-07, global = 1.64643e-21, cumulative = 2.12386e-20
[INFO] ContinuityError: 201.181 [ms]
[INFO] CorrectBoundary: 11.112 [ms]
[INFO] PISOStep: 653386 [ms]
[INFO] TimeStep: 1.32329e+06 [ms]
ExecutionTime = 23064.2 s  ClockTime = 23275 s

Time = 0.0025

Courant Number mean: 0.0461741 max: 4.70254
[INFO] MatrixAssemblyU: 1913.26 [ms]
DILUPBiCGStab:  Solving for Ux, Initial residual = 0.142782, Final residual = 0.00684467, No Iterations 5
DILUPBiCGStab:  Solving for Uy, Initial residual = 0.422909, Final residual = 0.0185724, No Iterations 5
DILUPBiCGStab:  Solving for Uz, Initial residual = 0.751783, Final residual = 0.0340666, No Iterations 5
[INFO] MomentumPredictor: 13848.5 [ms]
[INFO] MatrixAssemblyPI: 2163.46 [ms]
[INFO] AdjustPhi: 128.087 [ms]
[INFO] ConstrainPressure: 0.003 [ms]
[INFO] MatrixAssemblyPII: 636.432 [ms]
nonePCG:  Solving for p, Initial residual = 0.984379, Final residual = 9.90998e-05, No Iterations 3083
[INFO] SolveP: 650868 [ms]
time step continuity errors : sum local = 1.33245e-07, global = 5.20803e-21, cumulative = 2.64467e-20
[INFO] ContinuityError: 200.921 [ms]
[INFO] CorrectBoundary: 7.942 [ms]
[INFO] PISOStep: 654716 [ms]
[INFO] MatrixAssemblyPI: 2048.47 [ms]
[INFO] AdjustPhi: 122.667 [ms]
[INFO] ConstrainPressure: 0.013 [ms]
[INFO] MatrixAssemblyPII: 619.416 [ms]
nonePCG:  Solving for p, Initial residual = 0.919102, Final residual = 9.84666e-05, No Iterations 3080
[INFO] SolveP: 650124 [ms]
time step continuity errors : sum local = 1.33648e-07, global = 1.1611e-21, cumulative = 2.76078e-20
[INFO] ContinuityError: 202.102 [ms]
[INFO] CorrectBoundary: 7.115 [ms]
[INFO] PISOStep: 653849 [ms]
[INFO] TimeStep: 1.32454e+06 [ms]
ExecutionTime = 24376.7 s  ClockTime = 24599 s

End

Finalising parallel run
