/*---------------------------------------------------------------------------*\
| =========                 |                                                 |
| \\      /  F ield         | OpenFOAM: The Open Source CFD Toolbox           |
|  \\    /   O peration     | Version:  2312                                  |
|   \\  /    A nd           | Website:  www.openfoam.com                      |
|    \\/     M anipulation  |                                                 |
\*---------------------------------------------------------------------------*/
Build  : a46b310f-20240104 OPENFOAM=2312 version=v2312
Arch   : "LSB;label=32;scalar=64"
Exec   : decomposePar -force
Date   : Feb 16 2024
Time   : 21:44:24
Host   : i20r02c04s06
PID    : 36385
--> FOAM Warning : 
    From Foam::fileName Foam::cwd_L()
    in file POSIX.C at line 552
    PWD is not the cwd() - reverting to physical description
I/O    : uncollated
--> FOAM Warning : 
    From Foam::fileName Foam::cwd_L()
    in file POSIX.C at line 552
    PWD is not the cwd() - reverting to physical description
Case   : /hppfs/scratch/0B/di35yan/lidDriven3D/workspace/adb3a7e48b376fb1a814d213a00653c8/case
nProcs : 1
trapFpe: Floating point exception trapping enabled (FOAM_SIGFPE).
fileModificationChecking : Monitoring run-time modified files using timeStampMaster (fileModificationSkew 5, maxFileModificationPolls 20)
allowSystemOperations : Allowing user-supplied system call operations

// * * * * * * * * * * * * * * * * * * * * * * * * * * * * * * * * * * * * * //
Create time

--> FOAM Warning : 
    From void* Foam::dlLibraryTable::openLibrary(const Foam::fileName&, bool)
    in file db/dynamicLibrary/dlLibraryTable/dlLibraryTable.C at line 188
    Could not load "libpetscFoam.so"
libpetscFoam.so: cannot open shared object file: No such file or directory


Decomposing mesh

Create mesh

Calculating distribution of cells
Decomposition method simple [160] (region region0)

Finished decomposition in 16.37 s

Calculating original mesh data

Distributing cells to processors

Distributing faces to processors

Distributing points to processors

Constructing processor meshes

Processor 0
    Number of cells = 168750
    Number of points = 183616
    Number of faces shared with processor 1 = 11250
    Number of faces shared with processor 20 = 2250
    Number of faces shared with processor 80 = 1125
    Number of processor patches = 3
    Number of processor faces = 14625
    Number of boundary faces = 14625

Processor 1
    Number of cells = 168750
    Number of points = 183616
    Number of faces shared with processor 0 = 11250
    Number of faces shared with processor 2 = 11250
    Number of faces shared with processor 21 = 2250
    Number of faces shared with processor 81 = 1125
    Number of processor patches = 4
    Number of processor faces = 25875
    Number of boundary faces = 3375

Processor 2
    Number of cells = 168750
    Number of points = 183616
    Number of faces shared with processor 1 = 11250
    Number of faces shared with processor 3 = 11250
    Number of faces shared with processor 22 = 2250
    Number of faces shared with processor 82 = 1125
    Number of processor patches = 4
    Number of processor faces = 25875
    Number of boundary faces = 3375

Processor 3
    Number of cells = 168750
    Number of points = 183616
    Number of faces shared with processor 2 = 11250
    Number of faces shared with processor 4 = 11250
    Number of faces shared with processor 23 = 2250
    Number of faces shared with processor 83 = 1125
    Number of processor patches = 4
    Number of processor faces = 25875
    Number of boundary faces = 3375

Processor 4
    Number of cells = 168750
    Number of points = 183616
    Number of faces shared with processor 3 = 11250
    Number of faces shared with processor 5 = 11250
    Number of faces shared with processor 24 = 2250
    Number of faces shared with processor 84 = 1125
    Number of processor patches = 4
    Number of processor faces = 25875
    Number of boundary faces = 3375

Processor 5
    Number of cells = 168750
    Number of points = 183616
    Number of faces shared with processor 4 = 11250
    Number of faces shared with processor 6 = 11250
    Number of faces shared with processor 25 = 2250
    Number of faces shared with processor 85 = 1125
    Number of processor patches = 4
    Number of processor faces = 25875
    Number of boundary faces = 3375

Processor 6
    Number of cells = 168750
    Number of points = 183616
    Number of faces shared with processor 5 = 11250
    Number of faces shared with processor 7 = 11250
    Number of faces shared with processor 26 = 2250
    Number of faces shared with processor 86 = 1125
    Number of processor patches = 4
    Number of processor faces = 25875
    Number of boundary faces = 3375

Processor 7
    Number of cells = 168750
    Number of points = 183616
    Number of faces shared with processor 6 = 11250
    Number of faces shared with processor 8 = 11250
    Number of faces shared with processor 27 = 2250
    Number of faces shared with processor 87 = 1125
    Number of processor patches = 4
    Number of processor faces = 25875
    Number of boundary faces = 3375

Processor 8
    Number of cells = 168750
    Number of points = 183616
    Number of faces shared with processor 7 = 11250
    Number of faces shared with processor 9 = 11250
    Number of faces shared with processor 28 = 2250
    Number of faces shared with processor 88 = 1125
    Number of processor patches = 4
    Number of processor faces = 25875
    Number of boundary faces = 3375

Processor 9
    Number of cells = 168750
    Number of points = 183616
    Number of faces shared with processor 8 = 11250
    Number of faces shared with processor 10 = 11250
    Number of faces shared with processor 29 = 2250
    Number of faces shared with processor 89 = 1125
    Number of processor patches = 4
    Number of processor faces = 25875
    Number of boundary faces = 3375

Processor 10
    Number of cells = 168750
    Number of points = 183616
    Number of faces shared with processor 9 = 11250
    Number of faces shared with processor 11 = 11250
    Number of faces shared with processor 30 = 2250
    Number of faces shared with processor 90 = 1125
    Number of processor patches = 4
    Number of processor faces = 25875
    Number of boundary faces = 3375

Processor 11
    Number of cells = 168750
    Number of points = 183616
    Number of faces shared with processor 10 = 11250
    Number of faces shared with processor 12 = 11250
    Number of faces shared with processor 31 = 2250
    Number of faces shared with processor 91 = 1125
    Number of processor patches = 4
    Number of processor faces = 25875
    Number of boundary faces = 3375

Processor 12
    Number of cells = 168750
    Number of points = 183616
    Number of faces shared with processor 11 = 11250
    Number of faces shared with processor 13 = 11250
    Number of faces shared with processor 32 = 2250
    Number of faces shared with processor 92 = 1125
    Number of processor patches = 4
    Number of processor faces = 25875
    Number of boundary faces = 3375

Processor 13
    Number of cells = 168750
    Number of points = 183616
    Number of faces shared with processor 12 = 11250
    Number of faces shared with processor 14 = 11250
    Number of faces shared with processor 33 = 2250
    Number of faces shared with processor 93 = 1125
    Number of processor patches = 4
    Number of processor faces = 25875
    Number of boundary faces = 3375

Processor 14
    Number of cells = 168750
    Number of points = 183616
    Number of faces shared with processor 13 = 11250
    Number of faces shared with processor 15 = 11250
    Number of faces shared with processor 34 = 2250
    Number of faces shared with processor 94 = 1125
    Number of processor patches = 4
    Number of processor faces = 25875
    Number of boundary faces = 3375

Processor 15
    Number of cells = 168750
    Number of points = 183616
    Number of faces shared with processor 14 = 11250
    Number of faces shared with processor 16 = 11250
    Number of faces shared with processor 35 = 2250
    Number of faces shared with processor 95 = 1125
    Number of processor patches = 4
    Number of processor faces = 25875
    Number of boundary faces = 3375

Processor 16
    Number of cells = 168750
    Number of points = 183616
    Number of faces shared with processor 15 = 11250
    Number of faces shared with processor 17 = 11250
    Number of faces shared with processor 36 = 2250
    Number of faces shared with processor 96 = 1125
    Number of processor patches = 4
    Number of processor faces = 25875
    Number of boundary faces = 3375

Processor 17
    Number of cells = 168750
    Number of points = 183616
    Number of faces shared with processor 16 = 11250
    Number of faces shared with processor 18 = 11250
    Number of faces shared with processor 37 = 2250
    Number of faces shared with processor 97 = 1125
    Number of processor patches = 4
    Number of processor faces = 25875
    Number of boundary faces = 3375

Processor 18
    Number of cells = 168750
    Number of points = 183616
    Number of faces shared with processor 17 = 11250
    Number of faces shared with processor 19 = 11250
    Number of faces shared with processor 38 = 2250
    Number of faces shared with processor 98 = 1125
    Number of processor patches = 4
    Number of processor faces = 25875
    Number of boundary faces = 3375

Processor 19
    Number of cells = 168750
    Number of points = 183616
    Number of faces shared with processor 18 = 11250
    Number of faces shared with processor 39 = 2250
    Number of faces shared with processor 99 = 1125
    Number of processor patches = 3
    Number of processor faces = 14625
    Number of boundary faces = 14625

Processor 20
    Number of cells = 168750
    Number of points = 183616
    Number of faces shared with processor 0 = 2250
    Number of faces shared with processor 21 = 11250
    Number of faces shared with processor 40 = 2250
    Number of faces shared with processor 100 = 1125
    Number of processor patches = 4
    Number of processor faces = 16875
    Number of boundary faces = 12375

Processor 21
    Number of cells = 168750
    Number of points = 183616
    Number of faces shared with processor 1 = 2250
    Number of faces shared with processor 20 = 11250
    Number of faces shared with processor 22 = 11250
    Number of faces shared with processor 41 = 2250
    Number of faces shared with processor 101 = 1125
    Number of processor patches = 5
    Number of processor faces = 28125
    Number of boundary faces = 1125

Processor 22
    Number of cells = 168750
    Number of points = 183616
    Number of faces shared with processor 2 = 2250
    Number of faces shared with processor 21 = 11250
    Number of faces shared with processor 23 = 11250
    Number of faces shared with processor 42 = 2250
    Number of faces shared with processor 102 = 1125
    Number of processor patches = 5
    Number of processor faces = 28125
    Number of boundary faces = 1125

Processor 23
    Number of cells = 168750
    Number of points = 183616
    Number of faces shared with processor 3 = 2250
    Number of faces shared with processor 22 = 11250
    Number of faces shared with processor 24 = 11250
    Number of faces shared with processor 43 = 2250
    Number of faces shared with processor 103 = 1125
    Number of processor patches = 5
    Number of processor faces = 28125
    Number of boundary faces = 1125

Processor 24
    Number of cells = 168750
    Number of points = 183616
    Number of faces shared with processor 4 = 2250
    Number of faces shared with processor 23 = 11250
    Number of faces shared with processor 25 = 11250
    Number of faces shared with processor 44 = 2250
    Number of faces shared with processor 104 = 1125
    Number of processor patches = 5
    Number of processor faces = 28125
    Number of boundary faces = 1125

Processor 25
    Number of cells = 168750
    Number of points = 183616
    Number of faces shared with processor 5 = 2250
    Number of faces shared with processor 24 = 11250
    Number of faces shared with processor 26 = 11250
    Number of faces shared with processor 45 = 2250
    Number of faces shared with processor 105 = 1125
    Number of processor patches = 5
    Number of processor faces = 28125
    Number of boundary faces = 1125

Processor 26
    Number of cells = 168750
    Number of points = 183616
    Number of faces shared with processor 6 = 2250
    Number of faces shared with processor 25 = 11250
    Number of faces shared with processor 27 = 11250
    Number of faces shared with processor 46 = 2250
    Number of faces shared with processor 106 = 1125
    Number of processor patches = 5
    Number of processor faces = 28125
    Number of boundary faces = 1125

Processor 27
    Number of cells = 168750
    Number of points = 183616
    Number of faces shared with processor 7 = 2250
    Number of faces shared with processor 26 = 11250
    Number of faces shared with processor 28 = 11250
    Number of faces shared with processor 47 = 2250
    Number of faces shared with processor 107 = 1125
    Number of processor patches = 5
    Number of processor faces = 28125
    Number of boundary faces = 1125

Processor 28
    Number of cells = 168750
    Number of points = 183616
    Number of faces shared with processor 8 = 2250
    Number of faces shared with processor 27 = 11250
    Number of faces shared with processor 29 = 11250
    Number of faces shared with processor 48 = 2250
    Number of faces shared with processor 108 = 1125
    Number of processor patches = 5
    Number of processor faces = 28125
    Number of boundary faces = 1125

Processor 29
    Number of cells = 168750
    Number of points = 183616
    Number of faces shared with processor 9 = 2250
    Number of faces shared with processor 28 = 11250
    Number of faces shared with processor 30 = 11250
    Number of faces shared with processor 49 = 2250
    Number of faces shared with processor 109 = 1125
    Number of processor patches = 5
    Number of processor faces = 28125
    Number of boundary faces = 1125

Processor 30
    Number of cells = 168750
    Number of points = 183616
    Number of faces shared with processor 10 = 2250
    Number of faces shared with processor 29 = 11250
    Number of faces shared with processor 31 = 11250
    Number of faces shared with processor 50 = 2250
    Number of faces shared with processor 110 = 1125
    Number of processor patches = 5
    Number of processor faces = 28125
    Number of boundary faces = 1125

Processor 31
    Number of cells = 168750
    Number of points = 183616
    Number of faces shared with processor 11 = 2250
    Number of faces shared with processor 30 = 11250
    Number of faces shared with processor 32 = 11250
    Number of faces shared with processor 51 = 2250
    Number of faces shared with processor 111 = 1125
    Number of processor patches = 5
    Number of processor faces = 28125
    Number of boundary faces = 1125

Processor 32
    Number of cells = 168750
    Number of points = 183616
    Number of faces shared with processor 12 = 2250
    Number of faces shared with processor 31 = 11250
    Number of faces shared with processor 33 = 11250
    Number of faces shared with processor 52 = 2250
    Number of faces shared with processor 112 = 1125
    Number of processor patches = 5
    Number of processor faces = 28125
    Number of boundary faces = 1125

Processor 33
    Number of cells = 168750
    Number of points = 183616
    Number of faces shared with processor 13 = 2250
    Number of faces shared with processor 32 = 11250
    Number of faces shared with processor 34 = 11250
    Number of faces shared with processor 53 = 2250
    Number of faces shared with processor 113 = 1125
    Number of processor patches = 5
    Number of processor faces = 28125
    Number of boundary faces = 1125

Processor 34
    Number of cells = 168750
    Number of points = 183616
    Number of faces shared with processor 14 = 2250
    Number of faces shared with processor 33 = 11250
    Number of faces shared with processor 35 = 11250
    Number of faces shared with processor 54 = 2250
    Number of faces shared with processor 114 = 1125
    Number of processor patches = 5
    Number of processor faces = 28125
    Number of boundary faces = 1125

Processor 35
    Number of cells = 168750
    Number of points = 183616
    Number of faces shared with processor 15 = 2250
    Number of faces shared with processor 34 = 11250
    Number of faces shared with processor 36 = 11250
    Number of faces shared with processor 55 = 2250
    Number of faces shared with processor 115 = 1125
    Number of processor patches = 5
    Number of processor faces = 28125
    Number of boundary faces = 1125

Processor 36
    Number of cells = 168750
    Number of points = 183616
    Number of faces shared with processor 16 = 2250
    Number of faces shared with processor 35 = 11250
    Number of faces shared with processor 37 = 11250
    Number of faces shared with processor 56 = 2250
    Number of faces shared with processor 116 = 1125
    Number of processor patches = 5
    Number of processor faces = 28125
    Number of boundary faces = 1125

Processor 37
    Number of cells = 168750
    Number of points = 183616
    Number of faces shared with processor 17 = 2250
    Number of faces shared with processor 36 = 11250
    Number of faces shared with processor 38 = 11250
    Number of faces shared with processor 57 = 2250
    Number of faces shared with processor 117 = 1125
    Number of processor patches = 5
    Number of processor faces = 28125
    Number of boundary faces = 1125

Processor 38
    Number of cells = 168750
    Number of points = 183616
    Number of faces shared with processor 18 = 2250
    Number of faces shared with processor 37 = 11250
    Number of faces shared with processor 39 = 11250
    Number of faces shared with processor 58 = 2250
    Number of faces shared with processor 118 = 1125
    Number of processor patches = 5
    Number of processor faces = 28125
    Number of boundary faces = 1125

Processor 39
    Number of cells = 168750
    Number of points = 183616
    Number of faces shared with processor 19 = 2250
    Number of faces shared with processor 38 = 11250
    Number of faces shared with processor 59 = 2250
    Number of faces shared with processor 119 = 1125
    Number of processor patches = 4
    Number of processor faces = 16875
    Number of boundary faces = 12375

Processor 40
    Number of cells = 168750
    Number of points = 183616
    Number of faces shared with processor 20 = 2250
    Number of faces shared with processor 41 = 11250
    Number of faces shared with processor 60 = 2250
    Number of faces shared with processor 120 = 1125
    Number of processor patches = 4
    Number of processor faces = 16875
    Number of boundary faces = 12375

Processor 41
    Number of cells = 168750
    Number of points = 183616
    Number of faces shared with processor 21 = 2250
    Number of faces shared with processor 40 = 11250
    Number of faces shared with processor 42 = 11250
    Number of faces shared with processor 61 = 2250
    Number of faces shared with processor 121 = 1125
    Number of processor patches = 5
    Number of processor faces = 28125
    Number of boundary faces = 1125

Processor 42
    Number of cells = 168750
    Number of points = 183616
    Number of faces shared with processor 22 = 2250
    Number of faces shared with processor 41 = 11250
    Number of faces shared with processor 43 = 11250
    Number of faces shared with processor 62 = 2250
    Number of faces shared with processor 122 = 1125
    Number of processor patches = 5
    Number of processor faces = 28125
    Number of boundary faces = 1125

Processor 43
    Number of cells = 168750
    Number of points = 183616
    Number of faces shared with processor 23 = 2250
    Number of faces shared with processor 42 = 11250
    Number of faces shared with processor 44 = 11250
    Number of faces shared with processor 63 = 2250
    Number of faces shared with processor 123 = 1125
    Number of processor patches = 5
    Number of processor faces = 28125
    Number of boundary faces = 1125

Processor 44
    Number of cells = 168750
    Number of points = 183616
    Number of faces shared with processor 24 = 2250
    Number of faces shared with processor 43 = 11250
    Number of faces shared with processor 45 = 11250
    Number of faces shared with processor 64 = 2250
    Number of faces shared with processor 124 = 1125
    Number of processor patches = 5
    Number of processor faces = 28125
    Number of boundary faces = 1125

Processor 45
    Number of cells = 168750
    Number of points = 183616
    Number of faces shared with processor 25 = 2250
    Number of faces shared with processor 44 = 11250
    Number of faces shared with processor 46 = 11250
    Number of faces shared with processor 65 = 2250
    Number of faces shared with processor 125 = 1125
    Number of processor patches = 5
    Number of processor faces = 28125
    Number of boundary faces = 1125

Processor 46
    Number of cells = 168750
    Number of points = 183616
    Number of faces shared with processor 26 = 2250
    Number of faces shared with processor 45 = 11250
    Number of faces shared with processor 47 = 11250
    Number of faces shared with processor 66 = 2250
    Number of faces shared with processor 126 = 1125
    Number of processor patches = 5
    Number of processor faces = 28125
    Number of boundary faces = 1125

Processor 47
    Number of cells = 168750
    Number of points = 183616
    Number of faces shared with processor 27 = 2250
    Number of faces shared with processor 46 = 11250
    Number of faces shared with processor 48 = 11250
    Number of faces shared with processor 67 = 2250
    Number of faces shared with processor 127 = 1125
    Number of processor patches = 5
    Number of processor faces = 28125
    Number of boundary faces = 1125

Processor 48
    Number of cells = 168750
    Number of points = 183616
    Number of faces shared with processor 128 = 1125
    Number of faces shared with processor 28 = 2250
    Number of faces shared with processor 47 = 11250
    Number of faces shared with processor 49 = 11250
    Number of faces shared with processor 68 = 2250
    Number of processor patches = 5
    Number of processor faces = 28125
    Number of boundary faces = 1125

Processor 49
    Number of cells = 168750
    Number of points = 183616
    Number of faces shared with processor 129 = 1125
    Number of faces shared with processor 29 = 2250
    Number of faces shared with processor 48 = 11250
    Number of faces shared with processor 50 = 11250
    Number of faces shared with processor 69 = 2250
    Number of processor patches = 5
    Number of processor faces = 28125
    Number of boundary faces = 1125

Processor 50
    Number of cells = 168750
    Number of points = 183616
    Number of faces shared with processor 130 = 1125
    Number of faces shared with processor 30 = 2250
    Number of faces shared with processor 49 = 11250
    Number of faces shared with processor 51 = 11250
    Number of faces shared with processor 70 = 2250
    Number of processor patches = 5
    Number of processor faces = 28125
    Number of boundary faces = 1125

Processor 51
    Number of cells = 168750
    Number of points = 183616
    Number of faces shared with processor 131 = 1125
    Number of faces shared with processor 31 = 2250
    Number of faces shared with processor 50 = 11250
    Number of faces shared with processor 52 = 11250
    Number of faces shared with processor 71 = 2250
    Number of processor patches = 5
    Number of processor faces = 28125
    Number of boundary faces = 1125

Processor 52
    Number of cells = 168750
    Number of points = 183616
    Number of faces shared with processor 132 = 1125
    Number of faces shared with processor 32 = 2250
    Number of faces shared with processor 51 = 11250
    Number of faces shared with processor 53 = 11250
    Number of faces shared with processor 72 = 2250
    Number of processor patches = 5
    Number of processor faces = 28125
    Number of boundary faces = 1125

Processor 53
    Number of cells = 168750
    Number of points = 183616
    Number of faces shared with processor 133 = 1125
    Number of faces shared with processor 33 = 2250
    Number of faces shared with processor 52 = 11250
    Number of faces shared with processor 54 = 11250
    Number of faces shared with processor 73 = 2250
    Number of processor patches = 5
    Number of processor faces = 28125
    Number of boundary faces = 1125

Processor 54
    Number of cells = 168750
    Number of points = 183616
    Number of faces shared with processor 134 = 1125
    Number of faces shared with processor 34 = 2250
    Number of faces shared with processor 53 = 11250
    Number of faces shared with processor 55 = 11250
    Number of faces shared with processor 74 = 2250
    Number of processor patches = 5
    Number of processor faces = 28125
    Number of boundary faces = 1125

Processor 55
    Number of cells = 168750
    Number of points = 183616
    Number of faces shared with processor 135 = 1125
    Number of faces shared with processor 35 = 2250
    Number of faces shared with processor 54 = 11250
    Number of faces shared with processor 56 = 11250
    Number of faces shared with processor 75 = 2250
    Number of processor patches = 5
    Number of processor faces = 28125
    Number of boundary faces = 1125

Processor 56
    Number of cells = 168750
    Number of points = 183616
    Number of faces shared with processor 136 = 1125
    Number of faces shared with processor 36 = 2250
    Number of faces shared with processor 55 = 11250
    Number of faces shared with processor 57 = 11250
    Number of faces shared with processor 76 = 2250
    Number of processor patches = 5
    Number of processor faces = 28125
    Number of boundary faces = 1125

Processor 57
    Number of cells = 168750
    Number of points = 183616
    Number of faces shared with processor 137 = 1125
    Number of faces shared with processor 37 = 2250
    Number of faces shared with processor 56 = 11250
    Number of faces shared with processor 58 = 11250
    Number of faces shared with processor 77 = 2250
    Number of processor patches = 5
    Number of processor faces = 28125
    Number of boundary faces = 1125

Processor 58
    Number of cells = 168750
    Number of points = 183616
    Number of faces shared with processor 138 = 1125
    Number of faces shared with processor 38 = 2250
    Number of faces shared with processor 57 = 11250
    Number of faces shared with processor 59 = 11250
    Number of faces shared with processor 78 = 2250
    Number of processor patches = 5
    Number of processor faces = 28125
    Number of boundary faces = 1125

Processor 59
    Number of cells = 168750
    Number of points = 183616
    Number of faces shared with processor 139 = 1125
    Number of faces shared with processor 39 = 2250
    Number of faces shared with processor 58 = 11250
    Number of faces shared with processor 79 = 2250
    Number of processor patches = 4
    Number of processor faces = 16875
    Number of boundary faces = 12375

Processor 60
    Number of cells = 168750
    Number of points = 183616
    Number of faces shared with processor 140 = 1125
    Number of faces shared with processor 40 = 2250
    Number of faces shared with processor 61 = 11250
    Number of processor patches = 3
    Number of processor faces = 14625
    Number of boundary faces = 14625

Processor 61
    Number of cells = 168750
    Number of points = 183616
    Number of faces shared with processor 141 = 1125
    Number of faces shared with processor 41 = 2250
    Number of faces shared with processor 60 = 11250
    Number of faces shared with processor 62 = 11250
    Number of processor patches = 4
    Number of processor faces = 25875
    Number of boundary faces = 3375

Processor 62
    Number of cells = 168750
    Number of points = 183616
    Number of faces shared with processor 142 = 1125
    Number of faces shared with processor 42 = 2250
    Number of faces shared with processor 61 = 11250
    Number of faces shared with processor 63 = 11250
    Number of processor patches = 4
    Number of processor faces = 25875
    Number of boundary faces = 3375

Processor 63
    Number of cells = 168750
    Number of points = 183616
    Number of faces shared with processor 143 = 1125
    Number of faces shared with processor 43 = 2250
    Number of faces shared with processor 62 = 11250
    Number of faces shared with processor 64 = 11250
    Number of processor patches = 4
    Number of processor faces = 25875
    Number of boundary faces = 3375

Processor 64
    Number of cells = 168750
    Number of points = 183616
    Number of faces shared with processor 144 = 1125
    Number of faces shared with processor 44 = 2250
    Number of faces shared with processor 63 = 11250
    Number of faces shared with processor 65 = 11250
    Number of processor patches = 4
    Number of processor faces = 25875
    Number of boundary faces = 3375

Processor 65
    Number of cells = 168750
    Number of points = 183616
    Number of faces shared with processor 145 = 1125
    Number of faces shared with processor 45 = 2250
    Number of faces shared with processor 64 = 11250
    Number of faces shared with processor 66 = 11250
    Number of processor patches = 4
    Number of processor faces = 25875
    Number of boundary faces = 3375

Processor 66
    Number of cells = 168750
    Number of points = 183616
    Number of faces shared with processor 146 = 1125
    Number of faces shared with processor 46 = 2250
    Number of faces shared with processor 65 = 11250
    Number of faces shared with processor 67 = 11250
    Number of processor patches = 4
    Number of processor faces = 25875
    Number of boundary faces = 3375

Processor 67
    Number of cells = 168750
    Number of points = 183616
    Number of faces shared with processor 147 = 1125
    Number of faces shared with processor 47 = 2250
    Number of faces shared with processor 66 = 11250
    Number of faces shared with processor 68 = 11250
    Number of processor patches = 4
    Number of processor faces = 25875
    Number of boundary faces = 3375

Processor 68
    Number of cells = 168750
    Number of points = 183616
    Number of faces shared with processor 148 = 1125
    Number of faces shared with processor 48 = 2250
    Number of faces shared with processor 67 = 11250
    Number of faces shared with processor 69 = 11250
    Number of processor patches = 4
    Number of processor faces = 25875
    Number of boundary faces = 3375

Processor 69
    Number of cells = 168750
    Number of points = 183616
    Number of faces shared with processor 149 = 1125
    Number of faces shared with processor 49 = 2250
    Number of faces shared with processor 68 = 11250
    Number of faces shared with processor 70 = 11250
    Number of processor patches = 4
    Number of processor faces = 25875
    Number of boundary faces = 3375

Processor 70
    Number of cells = 168750
    Number of points = 183616
    Number of faces shared with processor 150 = 1125
    Number of faces shared with processor 50 = 2250
    Number of faces shared with processor 69 = 11250
    Number of faces shared with processor 71 = 11250
    Number of processor patches = 4
    Number of processor faces = 25875
    Number of boundary faces = 3375

Processor 71
    Number of cells = 168750
    Number of points = 183616
    Number of faces shared with processor 151 = 1125
    Number of faces shared with processor 51 = 2250
    Number of faces shared with processor 70 = 11250
    Number of faces shared with processor 72 = 11250
    Number of processor patches = 4
    Number of processor faces = 25875
    Number of boundary faces = 3375

Processor 72
    Number of cells = 168750
    Number of points = 183616
    Number of faces shared with processor 152 = 1125
    Number of faces shared with processor 52 = 2250
    Number of faces shared with processor 71 = 11250
    Number of faces shared with processor 73 = 11250
    Number of processor patches = 4
    Number of processor faces = 25875
    Number of boundary faces = 3375

Processor 73
    Number of cells = 168750
    Number of points = 183616
    Number of faces shared with processor 153 = 1125
    Number of faces shared with processor 53 = 2250
    Number of faces shared with processor 72 = 11250
    Number of faces shared with processor 74 = 11250
    Number of processor patches = 4
    Number of processor faces = 25875
    Number of boundary faces = 3375

Processor 74
    Number of cells = 168750
    Number of points = 183616
    Number of faces shared with processor 154 = 1125
    Number of faces shared with processor 54 = 2250
    Number of faces shared with processor 73 = 11250
    Number of faces shared with processor 75 = 11250
    Number of processor patches = 4
    Number of processor faces = 25875
    Number of boundary faces = 3375

Processor 75
    Number of cells = 168750
    Number of points = 183616
    Number of faces shared with processor 155 = 1125
    Number of faces shared with processor 55 = 2250
    Number of faces shared with processor 74 = 11250
    Number of faces shared with processor 76 = 11250
    Number of processor patches = 4
    Number of processor faces = 25875
    Number of boundary faces = 3375

Processor 76
    Number of cells = 168750
    Number of points = 183616
    Number of faces shared with processor 156 = 1125
    Number of faces shared with processor 56 = 2250
    Number of faces shared with processor 75 = 11250
    Number of faces shared with processor 77 = 11250
    Number of processor patches = 4
    Number of processor faces = 25875
    Number of boundary faces = 3375

Processor 77
    Number of cells = 168750
    Number of points = 183616
    Number of faces shared with processor 157 = 1125
    Number of faces shared with processor 57 = 2250
    Number of faces shared with processor 76 = 11250
    Number of faces shared with processor 78 = 11250
    Number of processor patches = 4
    Number of processor faces = 25875
    Number of boundary faces = 3375

Processor 78
    Number of cells = 168750
    Number of points = 183616
    Number of faces shared with processor 158 = 1125
    Number of faces shared with processor 58 = 2250
    Number of faces shared with processor 77 = 11250
    Number of faces shared with processor 79 = 11250
    Number of processor patches = 4
    Number of processor faces = 25875
    Number of boundary faces = 3375

Processor 79
    Number of cells = 168750
    Number of points = 183616
    Number of faces shared with processor 159 = 1125
    Number of faces shared with processor 59 = 2250
    Number of faces shared with processor 78 = 11250
    Number of processor patches = 3
    Number of processor faces = 14625
    Number of boundary faces = 14625

Processor 80
    Number of cells = 168750
    Number of points = 183616
    Number of faces shared with processor 0 = 1125
    Number of faces shared with processor 81 = 11250
    Number of faces shared with processor 100 = 2250
    Number of processor patches = 3
    Number of processor faces = 14625
    Number of boundary faces = 14625

Processor 81
    Number of cells = 168750
    Number of points = 183616
    Number of faces shared with processor 1 = 1125
    Number of faces shared with processor 80 = 11250
    Number of faces shared with processor 82 = 11250
    Number of faces shared with processor 101 = 2250
    Number of processor patches = 4
    Number of processor faces = 25875
    Number of boundary faces = 3375

Processor 82
    Number of cells = 168750
    Number of points = 183616
    Number of faces shared with processor 2 = 1125
    Number of faces shared with processor 81 = 11250
    Number of faces shared with processor 83 = 11250
    Number of faces shared with processor 102 = 2250
    Number of processor patches = 4
    Number of processor faces = 25875
    Number of boundary faces = 3375

Processor 83
    Number of cells = 168750
    Number of points = 183616
    Number of faces shared with processor 3 = 1125
    Number of faces shared with processor 82 = 11250
    Number of faces shared with processor 84 = 11250
    Number of faces shared with processor 103 = 2250
    Number of processor patches = 4
    Number of processor faces = 25875
    Number of boundary faces = 3375

Processor 84
    Number of cells = 168750
    Number of points = 183616
    Number of faces shared with processor 4 = 1125
    Number of faces shared with processor 83 = 11250
    Number of faces shared with processor 85 = 11250
    Number of faces shared with processor 104 = 2250
    Number of processor patches = 4
    Number of processor faces = 25875
    Number of boundary faces = 3375

Processor 85
    Number of cells = 168750
    Number of points = 183616
    Number of faces shared with processor 5 = 1125
    Number of faces shared with processor 84 = 11250
    Number of faces shared with processor 86 = 11250
    Number of faces shared with processor 105 = 2250
    Number of processor patches = 4
    Number of processor faces = 25875
    Number of boundary faces = 3375

Processor 86
    Number of cells = 168750
    Number of points = 183616
    Number of faces shared with processor 6 = 1125
    Number of faces shared with processor 85 = 11250
    Number of faces shared with processor 87 = 11250
    Number of faces shared with processor 106 = 2250
    Number of processor patches = 4
    Number of processor faces = 25875
    Number of boundary faces = 3375

Processor 87
    Number of cells = 168750
    Number of points = 183616
    Number of faces shared with processor 7 = 1125
    Number of faces shared with processor 86 = 11250
    Number of faces shared with processor 88 = 11250
    Number of faces shared with processor 107 = 2250
    Number of processor patches = 4
    Number of processor faces = 25875
    Number of boundary faces = 3375

Processor 88
    Number of cells = 168750
    Number of points = 183616
    Number of faces shared with processor 8 = 1125
    Number of faces shared with processor 87 = 11250
    Number of faces shared with processor 89 = 11250
    Number of faces shared with processor 108 = 2250
    Number of processor patches = 4
    Number of processor faces = 25875
    Number of boundary faces = 3375

Processor 89
    Number of cells = 168750
    Number of points = 183616
    Number of faces shared with processor 9 = 1125
    Number of faces shared with processor 88 = 11250
    Number of faces shared with processor 90 = 11250
    Number of faces shared with processor 109 = 2250
    Number of processor patches = 4
    Number of processor faces = 25875
    Number of boundary faces = 3375

Processor 90
    Number of cells = 168750
    Number of points = 183616
    Number of faces shared with processor 10 = 1125
    Number of faces shared with processor 89 = 11250
    Number of faces shared with processor 91 = 11250
    Number of faces shared with processor 110 = 2250
    Number of processor patches = 4
    Number of processor faces = 25875
    Number of boundary faces = 3375

Processor 91
    Number of cells = 168750
    Number of points = 183616
    Number of faces shared with processor 11 = 1125
    Number of faces shared with processor 90 = 11250
    Number of faces shared with processor 92 = 11250
    Number of faces shared with processor 111 = 2250
    Number of processor patches = 4
    Number of processor faces = 25875
    Number of boundary faces = 3375

Processor 92
    Number of cells = 168750
    Number of points = 183616
    Number of faces shared with processor 12 = 1125
    Number of faces shared with processor 91 = 11250
    Number of faces shared with processor 93 = 11250
    Number of faces shared with processor 112 = 2250
    Number of processor patches = 4
    Number of processor faces = 25875
    Number of boundary faces = 3375

Processor 93
    Number of cells = 168750
    Number of points = 183616
    Number of faces shared with processor 13 = 1125
    Number of faces shared with processor 92 = 11250
    Number of faces shared with processor 94 = 11250
    Number of faces shared with processor 113 = 2250
    Number of processor patches = 4
    Number of processor faces = 25875
    Number of boundary faces = 3375

Processor 94
    Number of cells = 168750
    Number of points = 183616
    Number of faces shared with processor 14 = 1125
    Number of faces shared with processor 93 = 11250
    Number of faces shared with processor 95 = 11250
    Number of faces shared with processor 114 = 2250
    Number of processor patches = 4
    Number of processor faces = 25875
    Number of boundary faces = 3375

Processor 95
    Number of cells = 168750
    Number of points = 183616
    Number of faces shared with processor 15 = 1125
    Number of faces shared with processor 94 = 11250
    Number of faces shared with processor 96 = 11250
    Number of faces shared with processor 115 = 2250
    Number of processor patches = 4
    Number of processor faces = 25875
    Number of boundary faces = 3375

Processor 96
    Number of cells = 168750
    Number of points = 183616
    Number of faces shared with processor 16 = 1125
    Number of faces shared with processor 95 = 11250
    Number of faces shared with processor 97 = 11250
    Number of faces shared with processor 116 = 2250
    Number of processor patches = 4
    Number of processor faces = 25875
    Number of boundary faces = 3375

Processor 97
    Number of cells = 168750
    Number of points = 183616
    Number of faces shared with processor 17 = 1125
    Number of faces shared with processor 96 = 11250
    Number of faces shared with processor 98 = 11250
    Number of faces shared with processor 117 = 2250
    Number of processor patches = 4
    Number of processor faces = 25875
    Number of boundary faces = 3375

Processor 98
    Number of cells = 168750
    Number of points = 183616
    Number of faces shared with processor 18 = 1125
    Number of faces shared with processor 97 = 11250
    Number of faces shared with processor 99 = 11250
    Number of faces shared with processor 118 = 2250
    Number of processor patches = 4
    Number of processor faces = 25875
    Number of boundary faces = 3375

Processor 99
    Number of cells = 168750
    Number of points = 183616
    Number of faces shared with processor 19 = 1125
    Number of faces shared with processor 98 = 11250
    Number of faces shared with processor 119 = 2250
    Number of processor patches = 3
    Number of processor faces = 14625
    Number of boundary faces = 14625

Processor 100
    Number of cells = 168750
    Number of points = 183616
    Number of faces shared with processor 20 = 1125
    Number of faces shared with processor 80 = 2250
    Number of faces shared with processor 101 = 11250
    Number of faces shared with processor 120 = 2250
    Number of processor patches = 4
    Number of processor faces = 16875
    Number of boundary faces = 12375

Processor 101
    Number of cells = 168750
    Number of points = 183616
    Number of faces shared with processor 21 = 1125
    Number of faces shared with processor 81 = 2250
    Number of faces shared with processor 100 = 11250
    Number of faces shared with processor 102 = 11250
    Number of faces shared with processor 121 = 2250
    Number of processor patches = 5
    Number of processor faces = 28125
    Number of boundary faces = 1125

Processor 102
    Number of cells = 168750
    Number of points = 183616
    Number of faces shared with processor 22 = 1125
    Number of faces shared with processor 82 = 2250
    Number of faces shared with processor 101 = 11250
    Number of faces shared with processor 103 = 11250
    Number of faces shared with processor 122 = 2250
    Number of processor patches = 5
    Number of processor faces = 28125
    Number of boundary faces = 1125

Processor 103
    Number of cells = 168750
    Number of points = 183616
    Number of faces shared with processor 23 = 1125
    Number of faces shared with processor 83 = 2250
    Number of faces shared with processor 102 = 11250
    Number of faces shared with processor 104 = 11250
    Number of faces shared with processor 123 = 2250
    Number of processor patches = 5
    Number of processor faces = 28125
    Number of boundary faces = 1125

Processor 104
    Number of cells = 168750
    Number of points = 183616
    Number of faces shared with processor 24 = 1125
    Number of faces shared with processor 84 = 2250
    Number of faces shared with processor 103 = 11250
    Number of faces shared with processor 105 = 11250
    Number of faces shared with processor 124 = 2250
    Number of processor patches = 5
    Number of processor faces = 28125
    Number of boundary faces = 1125

Processor 105
    Number of cells = 168750
    Number of points = 183616
    Number of faces shared with processor 25 = 1125
    Number of faces shared with processor 85 = 2250
    Number of faces shared with processor 104 = 11250
    Number of faces shared with processor 106 = 11250
    Number of faces shared with processor 125 = 2250
    Number of processor patches = 5
    Number of processor faces = 28125
    Number of boundary faces = 1125

Processor 106
    Number of cells = 168750
    Number of points = 183616
    Number of faces shared with processor 26 = 1125
    Number of faces shared with processor 86 = 2250
    Number of faces shared with processor 105 = 11250
    Number of faces shared with processor 107 = 11250
    Number of faces shared with processor 126 = 2250
    Number of processor patches = 5
    Number of processor faces = 28125
    Number of boundary faces = 1125

Processor 107
    Number of cells = 168750
    Number of points = 183616
    Number of faces shared with processor 27 = 1125
    Number of faces shared with processor 87 = 2250
    Number of faces shared with processor 106 = 11250
    Number of faces shared with processor 108 = 11250
    Number of faces shared with processor 127 = 2250
    Number of processor patches = 5
    Number of processor faces = 28125
    Number of boundary faces = 1125

Processor 108
    Number of cells = 168750
    Number of points = 183616
    Number of faces shared with processor 128 = 2250
    Number of faces shared with processor 28 = 1125
    Number of faces shared with processor 88 = 2250
    Number of faces shared with processor 107 = 11250
    Number of faces shared with processor 109 = 11250
    Number of processor patches = 5
    Number of processor faces = 28125
    Number of boundary faces = 1125

Processor 109
    Number of cells = 168750
    Number of points = 183616
    Number of faces shared with processor 129 = 2250
    Number of faces shared with processor 29 = 1125
    Number of faces shared with processor 89 = 2250
    Number of faces shared with processor 108 = 11250
    Number of faces shared with processor 110 = 11250
    Number of processor patches = 5
    Number of processor faces = 28125
    Number of boundary faces = 1125

Processor 110
    Number of cells = 168750
    Number of points = 183616
    Number of faces shared with processor 130 = 2250
    Number of faces shared with processor 30 = 1125
    Number of faces shared with processor 90 = 2250
    Number of faces shared with processor 109 = 11250
    Number of faces shared with processor 111 = 11250
    Number of processor patches = 5
    Number of processor faces = 28125
    Number of boundary faces = 1125

Processor 111
    Number of cells = 168750
    Number of points = 183616
    Number of faces shared with processor 131 = 2250
    Number of faces shared with processor 31 = 1125
    Number of faces shared with processor 91 = 2250
    Number of faces shared with processor 110 = 11250
    Number of faces shared with processor 112 = 11250
    Number of processor patches = 5
    Number of processor faces = 28125
    Number of boundary faces = 1125

Processor 112
    Number of cells = 168750
    Number of points = 183616
    Number of faces shared with processor 132 = 2250
    Number of faces shared with processor 32 = 1125
    Number of faces shared with processor 92 = 2250
    Number of faces shared with processor 111 = 11250
    Number of faces shared with processor 113 = 11250
    Number of processor patches = 5
    Number of processor faces = 28125
    Number of boundary faces = 1125

Processor 113
    Number of cells = 168750
    Number of points = 183616
    Number of faces shared with processor 133 = 2250
    Number of faces shared with processor 33 = 1125
    Number of faces shared with processor 93 = 2250
    Number of faces shared with processor 112 = 11250
    Number of faces shared with processor 114 = 11250
    Number of processor patches = 5
    Number of processor faces = 28125
    Number of boundary faces = 1125

Processor 114
    Number of cells = 168750
    Number of points = 183616
    Number of faces shared with processor 134 = 2250
    Number of faces shared with processor 34 = 1125
    Number of faces shared with processor 94 = 2250
    Number of faces shared with processor 113 = 11250
    Number of faces shared with processor 115 = 11250
    Number of processor patches = 5
    Number of processor faces = 28125
    Number of boundary faces = 1125

Processor 115
    Number of cells = 168750
    Number of points = 183616
    Number of faces shared with processor 135 = 2250
    Number of faces shared with processor 35 = 1125
    Number of faces shared with processor 95 = 2250
    Number of faces shared with processor 114 = 11250
    Number of faces shared with processor 116 = 11250
    Number of processor patches = 5
    Number of processor faces = 28125
    Number of boundary faces = 1125

Processor 116
    Number of cells = 168750
    Number of points = 183616
    Number of faces shared with processor 136 = 2250
    Number of faces shared with processor 36 = 1125
    Number of faces shared with processor 96 = 2250
    Number of faces shared with processor 115 = 11250
    Number of faces shared with processor 117 = 11250
    Number of processor patches = 5
    Number of processor faces = 28125
    Number of boundary faces = 1125

Processor 117
    Number of cells = 168750
    Number of points = 183616
    Number of faces shared with processor 137 = 2250
    Number of faces shared with processor 37 = 1125
    Number of faces shared with processor 97 = 2250
    Number of faces shared with processor 116 = 11250
    Number of faces shared with processor 118 = 11250
    Number of processor patches = 5
    Number of processor faces = 28125
    Number of boundary faces = 1125

Processor 118
    Number of cells = 168750
    Number of points = 183616
    Number of faces shared with processor 138 = 2250
    Number of faces shared with processor 38 = 1125
    Number of faces shared with processor 98 = 2250
    Number of faces shared with processor 117 = 11250
    Number of faces shared with processor 119 = 11250
    Number of processor patches = 5
    Number of processor faces = 28125
    Number of boundary faces = 1125

Processor 119
    Number of cells = 168750
    Number of points = 183616
    Number of faces shared with processor 139 = 2250
    Number of faces shared with processor 39 = 1125
    Number of faces shared with processor 99 = 2250
    Number of faces shared with processor 118 = 11250
    Number of processor patches = 4
    Number of processor faces = 16875
    Number of boundary faces = 12375

Processor 120
    Number of cells = 168750
    Number of points = 183616
    Number of faces shared with processor 140 = 2250
    Number of faces shared with processor 40 = 1125
    Number of faces shared with processor 100 = 2250
    Number of faces shared with processor 121 = 11250
    Number of processor patches = 4
    Number of processor faces = 16875
    Number of boundary faces = 12375

Processor 121
    Number of cells = 168750
    Number of points = 183616
    Number of faces shared with processor 141 = 2250
    Number of faces shared with processor 41 = 1125
    Number of faces shared with processor 101 = 2250
    Number of faces shared with processor 120 = 11250
    Number of faces shared with processor 122 = 11250
    Number of processor patches = 5
    Number of processor faces = 28125
    Number of boundary faces = 1125

Processor 122
    Number of cells = 168750
    Number of points = 183616
    Number of faces shared with processor 142 = 2250
    Number of faces shared with processor 42 = 1125
    Number of faces shared with processor 102 = 2250
    Number of faces shared with processor 121 = 11250
    Number of faces shared with processor 123 = 11250
    Number of processor patches = 5
    Number of processor faces = 28125
    Number of boundary faces = 1125

Processor 123
    Number of cells = 168750
    Number of points = 183616
    Number of faces shared with processor 143 = 2250
    Number of faces shared with processor 43 = 1125
    Number of faces shared with processor 103 = 2250
    Number of faces shared with processor 122 = 11250
    Number of faces shared with processor 124 = 11250
    Number of processor patches = 5
    Number of processor faces = 28125
    Number of boundary faces = 1125

Processor 124
    Number of cells = 168750
    Number of points = 183616
    Number of faces shared with processor 144 = 2250
    Number of faces shared with processor 44 = 1125
    Number of faces shared with processor 104 = 2250
    Number of faces shared with processor 123 = 11250
    Number of faces shared with processor 125 = 11250
    Number of processor patches = 5
    Number of processor faces = 28125
    Number of boundary faces = 1125

Processor 125
    Number of cells = 168750
    Number of points = 183616
    Number of faces shared with processor 145 = 2250
    Number of faces shared with processor 45 = 1125
    Number of faces shared with processor 105 = 2250
    Number of faces shared with processor 124 = 11250
    Number of faces shared with processor 126 = 11250
    Number of processor patches = 5
    Number of processor faces = 28125
    Number of boundary faces = 1125

Processor 126
    Number of cells = 168750
    Number of points = 183616
    Number of faces shared with processor 146 = 2250
    Number of faces shared with processor 46 = 1125
    Number of faces shared with processor 106 = 2250
    Number of faces shared with processor 125 = 11250
    Number of faces shared with processor 127 = 11250
    Number of processor patches = 5
    Number of processor faces = 28125
    Number of boundary faces = 1125

Processor 127
    Number of cells = 168750
    Number of points = 183616
    Number of faces shared with processor 128 = 11250
    Number of faces shared with processor 147 = 2250
    Number of faces shared with processor 47 = 1125
    Number of faces shared with processor 107 = 2250
    Number of faces shared with processor 126 = 11250
    Number of processor patches = 5
    Number of processor faces = 28125
    Number of boundary faces = 1125

Processor 128
    Number of cells = 168750
    Number of points = 183616
    Number of faces shared with processor 129 = 11250
    Number of faces shared with processor 148 = 2250
    Number of faces shared with processor 48 = 1125
    Number of faces shared with processor 108 = 2250
    Number of faces shared with processor 127 = 11250
    Number of processor patches = 5
    Number of processor faces = 28125
    Number of boundary faces = 1125

Processor 129
    Number of cells = 168750
    Number of points = 183616
    Number of faces shared with processor 128 = 11250
    Number of faces shared with processor 130 = 11250
    Number of faces shared with processor 149 = 2250
    Number of faces shared with processor 49 = 1125
    Number of faces shared with processor 109 = 2250
    Number of processor patches = 5
    Number of processor faces = 28125
    Number of boundary faces = 1125

Processor 130
    Number of cells = 168750
    Number of points = 183616
    Number of faces shared with processor 129 = 11250
    Number of faces shared with processor 131 = 11250
    Number of faces shared with processor 150 = 2250
    Number of faces shared with processor 50 = 1125
    Number of faces shared with processor 110 = 2250
    Number of processor patches = 5
    Number of processor faces = 28125
    Number of boundary faces = 1125

Processor 131
    Number of cells = 168750
    Number of points = 183616
    Number of faces shared with processor 130 = 11250
    Number of faces shared with processor 132 = 11250
    Number of faces shared with processor 151 = 2250
    Number of faces shared with processor 51 = 1125
    Number of faces shared with processor 111 = 2250
    Number of processor patches = 5
    Number of processor faces = 28125
    Number of boundary faces = 1125

Processor 132
    Number of cells = 168750
    Number of points = 183616
    Number of faces shared with processor 131 = 11250
    Number of faces shared with processor 133 = 11250
    Number of faces shared with processor 152 = 2250
    Number of faces shared with processor 52 = 1125
    Number of faces shared with processor 112 = 2250
    Number of processor patches = 5
    Number of processor faces = 28125
    Number of boundary faces = 1125

Processor 133
    Number of cells = 168750
    Number of points = 183616
    Number of faces shared with processor 132 = 11250
    Number of faces shared with processor 134 = 11250
    Number of faces shared with processor 153 = 2250
    Number of faces shared with processor 53 = 1125
    Number of faces shared with processor 113 = 2250
    Number of processor patches = 5
    Number of processor faces = 28125
    Number of boundary faces = 1125

Processor 134
    Number of cells = 168750
    Number of points = 183616
    Number of faces shared with processor 133 = 11250
    Number of faces shared with processor 135 = 11250
    Number of faces shared with processor 154 = 2250
    Number of faces shared with processor 54 = 1125
    Number of faces shared with processor 114 = 2250
    Number of processor patches = 5
    Number of processor faces = 28125
    Number of boundary faces = 1125

Processor 135
    Number of cells = 168750
    Number of points = 183616
    Number of faces shared with processor 134 = 11250
    Number of faces shared with processor 136 = 11250
    Number of faces shared with processor 155 = 2250
    Number of faces shared with processor 55 = 1125
    Number of faces shared with processor 115 = 2250
    Number of processor patches = 5
    Number of processor faces = 28125
    Number of boundary faces = 1125

Processor 136
    Number of cells = 168750
    Number of points = 183616
    Number of faces shared with processor 135 = 11250
    Number of faces shared with processor 137 = 11250
    Number of faces shared with processor 156 = 2250
    Number of faces shared with processor 56 = 1125
    Number of faces shared with processor 116 = 2250
    Number of processor patches = 5
    Number of processor faces = 28125
    Number of boundary faces = 1125

Processor 137
    Number of cells = 168750
    Number of points = 183616
    Number of faces shared with processor 136 = 11250
    Number of faces shared with processor 138 = 11250
    Number of faces shared with processor 157 = 2250
    Number of faces shared with processor 57 = 1125
    Number of faces shared with processor 117 = 2250
    Number of processor patches = 5
    Number of processor faces = 28125
    Number of boundary faces = 1125

Processor 138
    Number of cells = 168750
    Number of points = 183616
    Number of faces shared with processor 137 = 11250
    Number of faces shared with processor 139 = 11250
    Number of faces shared with processor 158 = 2250
    Number of faces shared with processor 58 = 1125
    Number of faces shared with processor 118 = 2250
    Number of processor patches = 5
    Number of processor faces = 28125
    Number of boundary faces = 1125

Processor 139
    Number of cells = 168750
    Number of points = 183616
    Number of faces shared with processor 138 = 11250
    Number of faces shared with processor 159 = 2250
    Number of faces shared with processor 59 = 1125
    Number of faces shared with processor 119 = 2250
    Number of processor patches = 4
    Number of processor faces = 16875
    Number of boundary faces = 12375

Processor 140
    Number of cells = 168750
    Number of points = 183616
    Number of faces shared with processor 141 = 11250
    Number of faces shared with processor 60 = 1125
    Number of faces shared with processor 120 = 2250
    Number of processor patches = 3
    Number of processor faces = 14625
    Number of boundary faces = 14625

Processor 141
    Number of cells = 168750
    Number of points = 183616
    Number of faces shared with processor 140 = 11250
    Number of faces shared with processor 142 = 11250
    Number of faces shared with processor 61 = 1125
    Number of faces shared with processor 121 = 2250
    Number of processor patches = 4
    Number of processor faces = 25875
    Number of boundary faces = 3375

Processor 142
    Number of cells = 168750
    Number of points = 183616
    Number of faces shared with processor 141 = 11250
    Number of faces shared with processor 143 = 11250
    Number of faces shared with processor 62 = 1125
    Number of faces shared with processor 122 = 2250
    Number of processor patches = 4
    Number of processor faces = 25875
    Number of boundary faces = 3375

Processor 143
    Number of cells = 168750
    Number of points = 183616
    Number of faces shared with processor 142 = 11250
    Number of faces shared with processor 144 = 11250
    Number of faces shared with processor 63 = 1125
    Number of faces shared with processor 123 = 2250
    Number of processor patches = 4
    Number of processor faces = 25875
    Number of boundary faces = 3375

Processor 144
    Number of cells = 168750
    Number of points = 183616
    Number of faces shared with processor 143 = 11250
    Number of faces shared with processor 145 = 11250
    Number of faces shared with processor 64 = 1125
    Number of faces shared with processor 124 = 2250
    Number of processor patches = 4
    Number of processor faces = 25875
    Number of boundary faces = 3375

Processor 145
    Number of cells = 168750
    Number of points = 183616
    Number of faces shared with processor 144 = 11250
    Number of faces shared with processor 146 = 11250
    Number of faces shared with processor 65 = 1125
    Number of faces shared with processor 125 = 2250
    Number of processor patches = 4
    Number of processor faces = 25875
    Number of boundary faces = 3375

Processor 146
    Number of cells = 168750
    Number of points = 183616
    Number of faces shared with processor 145 = 11250
    Number of faces shared with processor 147 = 11250
    Number of faces shared with processor 66 = 1125
    Number of faces shared with processor 126 = 2250
    Number of processor patches = 4
    Number of processor faces = 25875
    Number of boundary faces = 3375

Processor 147
    Number of cells = 168750
    Number of points = 183616
    Number of faces shared with processor 146 = 11250
    Number of faces shared with processor 148 = 11250
    Number of faces shared with processor 67 = 1125
    Number of faces shared with processor 127 = 2250
    Number of processor patches = 4
    Number of processor faces = 25875
    Number of boundary faces = 3375

Processor 148
    Number of cells = 168750
    Number of points = 183616
    Number of faces shared with processor 128 = 2250
    Number of faces shared with processor 147 = 11250
    Number of faces shared with processor 149 = 11250
    Number of faces shared with processor 68 = 1125
    Number of processor patches = 4
    Number of processor faces = 25875
    Number of boundary faces = 3375

Processor 149
    Number of cells = 168750
    Number of points = 183616
    Number of faces shared with processor 129 = 2250
    Number of faces shared with processor 148 = 11250
    Number of faces shared with processor 150 = 11250
    Number of faces shared with processor 69 = 1125
    Number of processor patches = 4
    Number of processor faces = 25875
    Number of boundary faces = 3375

Processor 150
    Number of cells = 168750
    Number of points = 183616
    Number of faces shared with processor 130 = 2250
    Number of faces shared with processor 149 = 11250
    Number of faces shared with processor 151 = 11250
    Number of faces shared with processor 70 = 1125
    Number of processor patches = 4
    Number of processor faces = 25875
    Number of boundary faces = 3375

Processor 151
    Number of cells = 168750
    Number of points = 183616
    Number of faces shared with processor 131 = 2250
    Number of faces shared with processor 150 = 11250
    Number of faces shared with processor 152 = 11250
    Number of faces shared with processor 71 = 1125
    Number of processor patches = 4
    Number of processor faces = 25875
    Number of boundary faces = 3375

Processor 152
    Number of cells = 168750
    Number of points = 183616
    Number of faces shared with processor 132 = 2250
    Number of faces shared with processor 151 = 11250
    Number of faces shared with processor 153 = 11250
    Number of faces shared with processor 72 = 1125
    Number of processor patches = 4
    Number of processor faces = 25875
    Number of boundary faces = 3375

Processor 153
    Number of cells = 168750
    Number of points = 183616
    Number of faces shared with processor 133 = 2250
    Number of faces shared with processor 152 = 11250
    Number of faces shared with processor 154 = 11250
    Number of faces shared with processor 73 = 1125
    Number of processor patches = 4
    Number of processor faces = 25875
    Number of boundary faces = 3375

Processor 154
    Number of cells = 168750
    Number of points = 183616
    Number of faces shared with processor 134 = 2250
    Number of faces shared with processor 153 = 11250
    Number of faces shared with processor 155 = 11250
    Number of faces shared with processor 74 = 1125
    Number of processor patches = 4
    Number of processor faces = 25875
    Number of boundary faces = 3375

Processor 155
    Number of cells = 168750
    Number of points = 183616
    Number of faces shared with processor 135 = 2250
    Number of faces shared with processor 154 = 11250
    Number of faces shared with processor 156 = 11250
    Number of faces shared with processor 75 = 1125
    Number of processor patches = 4
    Number of processor faces = 25875
    Number of boundary faces = 3375

Processor 156
    Number of cells = 168750
    Number of points = 183616
    Number of faces shared with processor 136 = 2250
    Number of faces shared with processor 155 = 11250
    Number of faces shared with processor 157 = 11250
    Number of faces shared with processor 76 = 1125
    Number of processor patches = 4
    Number of processor faces = 25875
    Number of boundary faces = 3375

Processor 157
    Number of cells = 168750
    Number of points = 183616
    Number of faces shared with processor 137 = 2250
    Number of faces shared with processor 156 = 11250
    Number of faces shared with processor 158 = 11250
    Number of faces shared with processor 77 = 1125
    Number of processor patches = 4
    Number of processor faces = 25875
    Number of boundary faces = 3375

Processor 158
    Number of cells = 168750
    Number of points = 183616
    Number of faces shared with processor 138 = 2250
    Number of faces shared with processor 157 = 11250
    Number of faces shared with processor 159 = 11250
    Number of faces shared with processor 78 = 1125
    Number of processor patches = 4
    Number of processor faces = 25875
    Number of boundary faces = 3375

Processor 159
    Number of cells = 168750
    Number of points = 183616
    Number of faces shared with processor 139 = 2250
    Number of faces shared with processor 158 = 11250
    Number of faces shared with processor 79 = 1125
    Number of processor patches = 3
    Number of processor faces = 14625
    Number of boundary faces = 14625

Number of processor faces = 2070000
Max number of cells = 168750 (0% above average 168750)
Max number of processor patches = 5 (13.6364% above average 4.4)
Max number of faces between processors = 28125 (8.69565% above average 25875)

Time = 0

Processor 0: field transfer
--> FOAM Warning : 
    From void* Foam::dlLibraryTable::openLibrary(const Foam::fileName&, bool)
    in file db/dynamicLibrary/dlLibraryTable/dlLibraryTable.C at line 188
    Could not load "libpetscFoam.so"
libpetscFoam.so: cannot open shared object file: No such file or directory
Processor 1: field transfer
--> FOAM Warning : 
    From void* Foam::dlLibraryTable::openLibrary(const Foam::fileName&, bool)
    in file db/dynamicLibrary/dlLibraryTable/dlLibraryTable.C at line 188
    Could not load "libpetscFoam.so"
libpetscFoam.so: cannot open shared object file: No such file or directory
Processor 2: field transfer
--> FOAM Warning : 
    From void* Foam::dlLibraryTable::openLibrary(const Foam::fileName&, bool)
    in file db/dynamicLibrary/dlLibraryTable/dlLibraryTable.C at line 188
    Could not load "libpetscFoam.so"
libpetscFoam.so: cannot open shared object file: No such file or directory
Processor 3: field transfer
--> FOAM Warning : 
    From void* Foam::dlLibraryTable::openLibrary(const Foam::fileName&, bool)
    in file db/dynamicLibrary/dlLibraryTable/dlLibraryTable.C at line 188
    Could not load "libpetscFoam.so"
libpetscFoam.so: cannot open shared object file: No such file or directory
Processor 4: field transfer
--> FOAM Warning : 
    From void* Foam::dlLibraryTable::openLibrary(const Foam::fileName&, bool)
    in file db/dynamicLibrary/dlLibraryTable/dlLibraryTable.C at line 188
    Could not load "libpetscFoam.so"
libpetscFoam.so: cannot open shared object file: No such file or directory
Processor 5: field transfer
--> FOAM Warning : 
    From void* Foam::dlLibraryTable::openLibrary(const Foam::fileName&, bool)
    in file db/dynamicLibrary/dlLibraryTable/dlLibraryTable.C at line 188
    Could not load "libpetscFoam.so"
libpetscFoam.so: cannot open shared object file: No such file or directory
Processor 6: field transfer
--> FOAM Warning : 
    From void* Foam::dlLibraryTable::openLibrary(const Foam::fileName&, bool)
    in file db/dynamicLibrary/dlLibraryTable/dlLibraryTable.C at line 188
    Could not load "libpetscFoam.so"
libpetscFoam.so: cannot open shared object file: No such file or directory
Processor 7: field transfer
--> FOAM Warning : 
    From void* Foam::dlLibraryTable::openLibrary(const Foam::fileName&, bool)
    in file db/dynamicLibrary/dlLibraryTable/dlLibraryTable.C at line 188
    Could not load "libpetscFoam.so"
libpetscFoam.so: cannot open shared object file: No such file or directory
Processor 8: field transfer
--> FOAM Warning : 
    From void* Foam::dlLibraryTable::openLibrary(const Foam::fileName&, bool)
    in file db/dynamicLibrary/dlLibraryTable/dlLibraryTable.C at line 188
    Could not load "libpetscFoam.so"
libpetscFoam.so: cannot open shared object file: No such file or directory
Processor 9: field transfer
--> FOAM Warning : 
    From void* Foam::dlLibraryTable::openLibrary(const Foam::fileName&, bool)
    in file db/dynamicLibrary/dlLibraryTable/dlLibraryTable.C at line 188
    Could not load "libpetscFoam.so"
libpetscFoam.so: cannot open shared object file: No such file or directory
Processor 10: field transfer
--> FOAM Warning : 
    From void* Foam::dlLibraryTable::openLibrary(const Foam::fileName&, bool)
    in file db/dynamicLibrary/dlLibraryTable/dlLibraryTable.C at line 188
    Could not load "libpetscFoam.so"
libpetscFoam.so: cannot open shared object file: No such file or directory
Processor 11: field transfer
--> FOAM Warning : 
    From void* Foam::dlLibraryTable::openLibrary(const Foam::fileName&, bool)
    in file db/dynamicLibrary/dlLibraryTable/dlLibraryTable.C at line 188
    Could not load "libpetscFoam.so"
libpetscFoam.so: cannot open shared object file: No such file or directory
Processor 12: field transfer
--> FOAM Warning : 
    From void* Foam::dlLibraryTable::openLibrary(const Foam::fileName&, bool)
    in file db/dynamicLibrary/dlLibraryTable/dlLibraryTable.C at line 188
    Could not load "libpetscFoam.so"
libpetscFoam.so: cannot open shared object file: No such file or directory
Processor 13: field transfer
--> FOAM Warning : 
    From void* Foam::dlLibraryTable::openLibrary(const Foam::fileName&, bool)
    in file db/dynamicLibrary/dlLibraryTable/dlLibraryTable.C at line 188
    Could not load "libpetscFoam.so"
libpetscFoam.so: cannot open shared object file: No such file or directory
Processor 14: field transfer
--> FOAM Warning : 
    From void* Foam::dlLibraryTable::openLibrary(const Foam::fileName&, bool)
    in file db/dynamicLibrary/dlLibraryTable/dlLibraryTable.C at line 188
    Could not load "libpetscFoam.so"
libpetscFoam.so: cannot open shared object file: No such file or directory
Processor 15: field transfer
--> FOAM Warning : 
    From void* Foam::dlLibraryTable::openLibrary(const Foam::fileName&, bool)
    in file db/dynamicLibrary/dlLibraryTable/dlLibraryTable.C at line 188
    Could not load "libpetscFoam.so"
libpetscFoam.so: cannot open shared object file: No such file or directory
Processor 16: field transfer
--> FOAM Warning : 
    From void* Foam::dlLibraryTable::openLibrary(const Foam::fileName&, bool)
    in file db/dynamicLibrary/dlLibraryTable/dlLibraryTable.C at line 188
    Could not load "libpetscFoam.so"
libpetscFoam.so: cannot open shared object file: No such file or directory
Processor 17: field transfer
--> FOAM Warning : 
    From void* Foam::dlLibraryTable::openLibrary(const Foam::fileName&, bool)
    in file db/dynamicLibrary/dlLibraryTable/dlLibraryTable.C at line 188
    Could not load "libpetscFoam.so"
libpetscFoam.so: cannot open shared object file: No such file or directory
Processor 18: field transfer
--> FOAM Warning : 
    From void* Foam::dlLibraryTable::openLibrary(const Foam::fileName&, bool)
    in file db/dynamicLibrary/dlLibraryTable/dlLibraryTable.C at line 188
    Could not load "libpetscFoam.so"
libpetscFoam.so: cannot open shared object file: No such file or directory
Processor 19: field transfer
--> FOAM Warning : 
    From void* Foam::dlLibraryTable::openLibrary(const Foam::fileName&, bool)
    in file db/dynamicLibrary/dlLibraryTable/dlLibraryTable.C at line 188
    Could not load "libpetscFoam.so"
libpetscFoam.so: cannot open shared object file: No such file or directory
Processor 20: field transfer
--> FOAM Warning : 
    From void* Foam::dlLibraryTable::openLibrary(const Foam::fileName&, bool)
    in file db/dynamicLibrary/dlLibraryTable/dlLibraryTable.C at line 188
    Could not load "libpetscFoam.so"
libpetscFoam.so: cannot open shared object file: No such file or directory
Processor 21: field transfer
--> FOAM Warning : 
    From void* Foam::dlLibraryTable::openLibrary(const Foam::fileName&, bool)
    in file db/dynamicLibrary/dlLibraryTable/dlLibraryTable.C at line 188
    Could not load "libpetscFoam.so"
libpetscFoam.so: cannot open shared object file: No such file or directory
Processor 22: field transfer
--> FOAM Warning : 
    From void* Foam::dlLibraryTable::openLibrary(const Foam::fileName&, bool)
    in file db/dynamicLibrary/dlLibraryTable/dlLibraryTable.C at line 188
    Could not load "libpetscFoam.so"
libpetscFoam.so: cannot open shared object file: No such file or directory
Processor 23: field transfer
--> FOAM Warning : 
    From void* Foam::dlLibraryTable::openLibrary(const Foam::fileName&, bool)
    in file db/dynamicLibrary/dlLibraryTable/dlLibraryTable.C at line 188
    Could not load "libpetscFoam.so"
libpetscFoam.so: cannot open shared object file: No such file or directory
Processor 24: field transfer
--> FOAM Warning : 
    From void* Foam::dlLibraryTable::openLibrary(const Foam::fileName&, bool)
    in file db/dynamicLibrary/dlLibraryTable/dlLibraryTable.C at line 188
    Could not load "libpetscFoam.so"
libpetscFoam.so: cannot open shared object file: No such file or directory
Processor 25: field transfer
--> FOAM Warning : 
    From void* Foam::dlLibraryTable::openLibrary(const Foam::fileName&, bool)
    in file db/dynamicLibrary/dlLibraryTable/dlLibraryTable.C at line 188
    Could not load "libpetscFoam.so"
libpetscFoam.so: cannot open shared object file: No such file or directory
Processor 26: field transfer
--> FOAM Warning : 
    From void* Foam::dlLibraryTable::openLibrary(const Foam::fileName&, bool)
    in file db/dynamicLibrary/dlLibraryTable/dlLibraryTable.C at line 188
    Could not load "libpetscFoam.so"
libpetscFoam.so: cannot open shared object file: No such file or directory
Processor 27: field transfer
--> FOAM Warning : 
    From void* Foam::dlLibraryTable::openLibrary(const Foam::fileName&, bool)
    in file db/dynamicLibrary/dlLibraryTable/dlLibraryTable.C at line 188
    Could not load "libpetscFoam.so"
libpetscFoam.so: cannot open shared object file: No such file or directory
Processor 28: field transfer
--> FOAM Warning : 
    From void* Foam::dlLibraryTable::openLibrary(const Foam::fileName&, bool)
    in file db/dynamicLibrary/dlLibraryTable/dlLibraryTable.C at line 188
    Could not load "libpetscFoam.so"
libpetscFoam.so: cannot open shared object file: No such file or directory
Processor 29: field transfer
--> FOAM Warning : 
    From void* Foam::dlLibraryTable::openLibrary(const Foam::fileName&, bool)
    in file db/dynamicLibrary/dlLibraryTable/dlLibraryTable.C at line 188
    Could not load "libpetscFoam.so"
libpetscFoam.so: cannot open shared object file: No such file or directory
Processor 30: field transfer
--> FOAM Warning : 
    From void* Foam::dlLibraryTable::openLibrary(const Foam::fileName&, bool)
    in file db/dynamicLibrary/dlLibraryTable/dlLibraryTable.C at line 188
    Could not load "libpetscFoam.so"
libpetscFoam.so: cannot open shared object file: No such file or directory
Processor 31: field transfer
--> FOAM Warning : 
    From void* Foam::dlLibraryTable::openLibrary(const Foam::fileName&, bool)
    in file db/dynamicLibrary/dlLibraryTable/dlLibraryTable.C at line 188
    Could not load "libpetscFoam.so"
libpetscFoam.so: cannot open shared object file: No such file or directory
Processor 32: field transfer
--> FOAM Warning : 
    From void* Foam::dlLibraryTable::openLibrary(const Foam::fileName&, bool)
    in file db/dynamicLibrary/dlLibraryTable/dlLibraryTable.C at line 188
    Could not load "libpetscFoam.so"
libpetscFoam.so: cannot open shared object file: No such file or directory
Processor 33: field transfer
--> FOAM Warning : 
    From void* Foam::dlLibraryTable::openLibrary(const Foam::fileName&, bool)
    in file db/dynamicLibrary/dlLibraryTable/dlLibraryTable.C at line 188
    Could not load "libpetscFoam.so"
libpetscFoam.so: cannot open shared object file: No such file or directory
Processor 34: field transfer
--> FOAM Warning : 
    From void* Foam::dlLibraryTable::openLibrary(const Foam::fileName&, bool)
    in file db/dynamicLibrary/dlLibraryTable/dlLibraryTable.C at line 188
    Could not load "libpetscFoam.so"
libpetscFoam.so: cannot open shared object file: No such file or directory
Processor 35: field transfer
--> FOAM Warning : 
    From void* Foam::dlLibraryTable::openLibrary(const Foam::fileName&, bool)
[...]
    in file db/dynamicLibrary/dlLibraryTable/dlLibraryTable.C at line 188
    Could not load "libpetscFoam.so"
libpetscFoam.so: cannot open shared object file: No such file or directory
Processor 97: field transfer
--> FOAM Warning : 
    From void* Foam::dlLibraryTable::openLibrary(const Foam::fileName&, bool)
    in file db/dynamicLibrary/dlLibraryTable/dlLibraryTable.C at line 188
    Could not load "libpetscFoam.so"
libpetscFoam.so: cannot open shared object file: No such file or directory
Processor 98: field transfer
--> FOAM Warning : 
    From void* Foam::dlLibraryTable::openLibrary(const Foam::fileName&, bool)
    in file db/dynamicLibrary/dlLibraryTable/dlLibraryTable.C at line 188
    Could not load "libpetscFoam.so"
libpetscFoam.so: cannot open shared object file: No such file or directory
Processor 99: field transfer
--> FOAM Warning : 
    From void* Foam::dlLibraryTable::openLibrary(const Foam::fileName&, bool)
    in file db/dynamicLibrary/dlLibraryTable/dlLibraryTable.C at line 188
    Could not load "libpetscFoam.so"
libpetscFoam.so: cannot open shared object file: No such file or directory
Processor 100: field transfer
--> FOAM Warning : 
    From void* Foam::dlLibraryTable::openLibrary(const Foam::fileName&, bool)
    in file db/dynamicLibrary/dlLibraryTable/dlLibraryTable.C at line 188
    Could not load "libpetscFoam.so"
libpetscFoam.so: cannot open shared object file: No such file or directory
Processor 101: field transfer
--> FOAM Warning : 
    From void* Foam::dlLibraryTable::openLibrary(const Foam::fileName&, bool)
    in file db/dynamicLibrary/dlLibraryTable/dlLibraryTable.C at line 188
    Could not load "libpetscFoam.so"
libpetscFoam.so: cannot open shared object file: No such file or directory
Processor 102: field transfer
--> FOAM Warning : 
    From void* Foam::dlLibraryTable::openLibrary(const Foam::fileName&, bool)
    in file db/dynamicLibrary/dlLibraryTable/dlLibraryTable.C at line 188
    Could not load "libpetscFoam.so"
libpetscFoam.so: cannot open shared object file: No such file or directory
Processor 103: field transfer
--> FOAM Warning : 
    From void* Foam::dlLibraryTable::openLibrary(const Foam::fileName&, bool)
    in file db/dynamicLibrary/dlLibraryTable/dlLibraryTable.C at line 188
    Could not load "libpetscFoam.so"
libpetscFoam.so: cannot open shared object file: No such file or directory
Processor 104: field transfer
--> FOAM Warning : 
    From void* Foam::dlLibraryTable::openLibrary(const Foam::fileName&, bool)
    in file db/dynamicLibrary/dlLibraryTable/dlLibraryTable.C at line 188
    Could not load "libpetscFoam.so"
libpetscFoam.so: cannot open shared object file: No such file or directory
Processor 105: field transfer
--> FOAM Warning : 
    From void* Foam::dlLibraryTable::openLibrary(const Foam::fileName&, bool)
    in file db/dynamicLibrary/dlLibraryTable/dlLibraryTable.C at line 188
    Could not load "libpetscFoam.so"
libpetscFoam.so: cannot open shared object file: No such file or directory
Processor 106: field transfer
--> FOAM Warning : 
    From void* Foam::dlLibraryTable::openLibrary(const Foam::fileName&, bool)
    in file db/dynamicLibrary/dlLibraryTable/dlLibraryTable.C at line 188
    Could not load "libpetscFoam.so"
libpetscFoam.so: cannot open shared object file: No such file or directory
Processor 107: field transfer
--> FOAM Warning : 
    From void* Foam::dlLibraryTable::openLibrary(const Foam::fileName&, bool)
    in file db/dynamicLibrary/dlLibraryTable/dlLibraryTable.C at line 188
    Could not load "libpetscFoam.so"
libpetscFoam.so: cannot open shared object file: No such file or directory
Processor 108: field transfer
--> FOAM Warning : 
    From void* Foam::dlLibraryTable::openLibrary(const Foam::fileName&, bool)
    in file db/dynamicLibrary/dlLibraryTable/dlLibraryTable.C at line 188
    Could not load "libpetscFoam.so"
libpetscFoam.so: cannot open shared object file: No such file or directory
Processor 109: field transfer
--> FOAM Warning : 
    From void* Foam::dlLibraryTable::openLibrary(const Foam::fileName&, bool)
    in file db/dynamicLibrary/dlLibraryTable/dlLibraryTable.C at line 188
    Could not load "libpetscFoam.so"
libpetscFoam.so: cannot open shared object file: No such file or directory
Processor 110: field transfer
--> FOAM Warning : 
    From void* Foam::dlLibraryTable::openLibrary(const Foam::fileName&, bool)
    in file db/dynamicLibrary/dlLibraryTable/dlLibraryTable.C at line 188
    Could not load "libpetscFoam.so"
libpetscFoam.so: cannot open shared object file: No such file or directory
Processor 111: field transfer
--> FOAM Warning : 
    From void* Foam::dlLibraryTable::openLibrary(const Foam::fileName&, bool)
    in file db/dynamicLibrary/dlLibraryTable/dlLibraryTable.C at line 188
    Could not load "libpetscFoam.so"
libpetscFoam.so: cannot open shared object file: No such file or directory
Processor 112: field transfer
--> FOAM Warning : 
    From void* Foam::dlLibraryTable::openLibrary(const Foam::fileName&, bool)
    in file db/dynamicLibrary/dlLibraryTable/dlLibraryTable.C at line 188
    Could not load "libpetscFoam.so"
libpetscFoam.so: cannot open shared object file: No such file or directory
Processor 113: field transfer
--> FOAM Warning : 
    From void* Foam::dlLibraryTable::openLibrary(const Foam::fileName&, bool)
    in file db/dynamicLibrary/dlLibraryTable/dlLibraryTable.C at line 188
    Could not load "libpetscFoam.so"
libpetscFoam.so: cannot open shared object file: No such file or directory
Processor 114: field transfer
--> FOAM Warning : 
    From void* Foam::dlLibraryTable::openLibrary(const Foam::fileName&, bool)
    in file db/dynamicLibrary/dlLibraryTable/dlLibraryTable.C at line 188
    Could not load "libpetscFoam.so"
libpetscFoam.so: cannot open shared object file: No such file or directory
Processor 115: field transfer
--> FOAM Warning : 
    From void* Foam::dlLibraryTable::openLibrary(const Foam::fileName&, bool)
    in file db/dynamicLibrary/dlLibraryTable/dlLibraryTable.C at line 188
    Could not load "libpetscFoam.so"
libpetscFoam.so: cannot open shared object file: No such file or directory
Processor 116: field transfer
--> FOAM Warning : 
    From void* Foam::dlLibraryTable::openLibrary(const Foam::fileName&, bool)
    in file db/dynamicLibrary/dlLibraryTable/dlLibraryTable.C at line 188
    Could not load "libpetscFoam.so"
libpetscFoam.so: cannot open shared object file: No such file or directory
Processor 117: field transfer
--> FOAM Warning : 
    From void* Foam::dlLibraryTable::openLibrary(const Foam::fileName&, bool)
    in file db/dynamicLibrary/dlLibraryTable/dlLibraryTable.C at line 188
    Could not load "libpetscFoam.so"
libpetscFoam.so: cannot open shared object file: No such file or directory
Processor 118: field transfer
--> FOAM Warning : 
    From void* Foam::dlLibraryTable::openLibrary(const Foam::fileName&, bool)
    in file db/dynamicLibrary/dlLibraryTable/dlLibraryTable.C at line 188
    Could not load "libpetscFoam.so"
libpetscFoam.so: cannot open shared object file: No such file or directory
Processor 119: field transfer
--> FOAM Warning : 
    From void* Foam::dlLibraryTable::openLibrary(const Foam::fileName&, bool)
    in file db/dynamicLibrary/dlLibraryTable/dlLibraryTable.C at line 188
    Could not load "libpetscFoam.so"
libpetscFoam.so: cannot open shared object file: No such file or directory
Processor 120: field transfer
--> FOAM Warning : 
    From void* Foam::dlLibraryTable::openLibrary(const Foam::fileName&, bool)
    in file db/dynamicLibrary/dlLibraryTable/dlLibraryTable.C at line 188
    Could not load "libpetscFoam.so"
libpetscFoam.so: cannot open shared object file: No such file or directory
Processor 121: field transfer
--> FOAM Warning : 
    From void* Foam::dlLibraryTable::openLibrary(const Foam::fileName&, bool)
    in file db/dynamicLibrary/dlLibraryTable/dlLibraryTable.C at line 188
    Could not load "libpetscFoam.so"
libpetscFoam.so: cannot open shared object file: No such file or directory
Processor 122: field transfer
--> FOAM Warning : 
    From void* Foam::dlLibraryTable::openLibrary(const Foam::fileName&, bool)
    in file db/dynamicLibrary/dlLibraryTable/dlLibraryTable.C at line 188
    Could not load "libpetscFoam.so"
libpetscFoam.so: cannot open shared object file: No such file or directory
Processor 123: field transfer
--> FOAM Warning : 
    From void* Foam::dlLibraryTable::openLibrary(const Foam::fileName&, bool)
    in file db/dynamicLibrary/dlLibraryTable/dlLibraryTable.C at line 188
    Could not load "libpetscFoam.so"
libpetscFoam.so: cannot open shared object file: No such file or directory
Processor 124: field transfer
--> FOAM Warning : 
    From void* Foam::dlLibraryTable::openLibrary(const Foam::fileName&, bool)
    in file db/dynamicLibrary/dlLibraryTable/dlLibraryTable.C at line 188
    Could not load "libpetscFoam.so"
libpetscFoam.so: cannot open shared object file: No such file or directory
Processor 125: field transfer
--> FOAM Warning : 
    From void* Foam::dlLibraryTable::openLibrary(const Foam::fileName&, bool)
    in file db/dynamicLibrary/dlLibraryTable/dlLibraryTable.C at line 188
    Could not load "libpetscFoam.so"
libpetscFoam.so: cannot open shared object file: No such file or directory
Processor 126: field transfer
--> FOAM Warning : 
    From void* Foam::dlLibraryTable::openLibrary(const Foam::fileName&, bool)
    in file db/dynamicLibrary/dlLibraryTable/dlLibraryTable.C at line 188
    Could not load "libpetscFoam.so"
libpetscFoam.so: cannot open shared object file: No such file or directory
Processor 127: field transfer
--> FOAM Warning : 
    From void* Foam::dlLibraryTable::openLibrary(const Foam::fileName&, bool)
    in file db/dynamicLibrary/dlLibraryTable/dlLibraryTable.C at line 188
    Could not load "libpetscFoam.so"
libpetscFoam.so: cannot open shared object file: No such file or directory
Processor 128: field transfer
--> FOAM Warning : 
    From void* Foam::dlLibraryTable::openLibrary(const Foam::fileName&, bool)
    in file db/dynamicLibrary/dlLibraryTable/dlLibraryTable.C at line 188
    Could not load "libpetscFoam.so"
libpetscFoam.so: cannot open shared object file: No such file or directory
Processor 129: field transfer
--> FOAM Warning : 
    From void* Foam::dlLibraryTable::openLibrary(const Foam::fileName&, bool)
    in file db/dynamicLibrary/dlLibraryTable/dlLibraryTable.C at line 188
    Could not load "libpetscFoam.so"
libpetscFoam.so: cannot open shared object file: No such file or directory
Processor 130: field transfer
--> FOAM Warning : 
    From void* Foam::dlLibraryTable::openLibrary(const Foam::fileName&, bool)
    in file db/dynamicLibrary/dlLibraryTable/dlLibraryTable.C at line 188
    Could not load "libpetscFoam.so"
libpetscFoam.so: cannot open shared object file: No such file or directory
Processor 131: field transfer
--> FOAM Warning : 
    From void* Foam::dlLibraryTable::openLibrary(const Foam::fileName&, bool)
    in file db/dynamicLibrary/dlLibraryTable/dlLibraryTable.C at line 188
    Could not load "libpetscFoam.so"
libpetscFoam.so: cannot open shared object file: No such file or directory
Processor 132: field transfer
--> FOAM Warning : 
    From void* Foam::dlLibraryTable::openLibrary(const Foam::fileName&, bool)
    in file db/dynamicLibrary/dlLibraryTable/dlLibraryTable.C at line 188
    Could not load "libpetscFoam.so"
libpetscFoam.so: cannot open shared object file: No such file or directory
Processor 133: field transfer
--> FOAM Warning : 
    From void* Foam::dlLibraryTable::openLibrary(const Foam::fileName&, bool)
    in file db/dynamicLibrary/dlLibraryTable/dlLibraryTable.C at line 188
    Could not load "libpetscFoam.so"
libpetscFoam.so: cannot open shared object file: No such file or directory
Processor 134: field transfer
--> FOAM Warning : 
    From void* Foam::dlLibraryTable::openLibrary(const Foam::fileName&, bool)
    in file db/dynamicLibrary/dlLibraryTable/dlLibraryTable.C at line 188
    Could not load "libpetscFoam.so"
libpetscFoam.so: cannot open shared object file: No such file or directory
Processor 135: field transfer
--> FOAM Warning : 
    From void* Foam::dlLibraryTable::openLibrary(const Foam::fileName&, bool)
    in file db/dynamicLibrary/dlLibraryTable/dlLibraryTable.C at line 188
    Could not load "libpetscFoam.so"
libpetscFoam.so: cannot open shared object file: No such file or directory
Processor 136: field transfer
--> FOAM Warning : 
    From void* Foam::dlLibraryTable::openLibrary(const Foam::fileName&, bool)
    in file db/dynamicLibrary/dlLibraryTable/dlLibraryTable.C at line 188
    Could not load "libpetscFoam.so"
libpetscFoam.so: cannot open shared object file: No such file or directory
Processor 137: field transfer
--> FOAM Warning : 
    From void* Foam::dlLibraryTable::openLibrary(const Foam::fileName&, bool)
    in file db/dynamicLibrary/dlLibraryTable/dlLibraryTable.C at line 188
    Could not load "libpetscFoam.so"
libpetscFoam.so: cannot open shared object file: No such file or directory
Processor 138: field transfer
--> FOAM Warning : 
    From void* Foam::dlLibraryTable::openLibrary(const Foam::fileName&, bool)
    in file db/dynamicLibrary/dlLibraryTable/dlLibraryTable.C at line 188
    Could not load "libpetscFoam.so"
libpetscFoam.so: cannot open shared object file: No such file or directory
Processor 139: field transfer
--> FOAM Warning : 
    From void* Foam::dlLibraryTable::openLibrary(const Foam::fileName&, bool)
    in file db/dynamicLibrary/dlLibraryTable/dlLibraryTable.C at line 188
    Could not load "libpetscFoam.so"
libpetscFoam.so: cannot open shared object file: No such file or directory
Processor 140: field transfer
--> FOAM Warning : 
    From void* Foam::dlLibraryTable::openLibrary(const Foam::fileName&, bool)
    in file db/dynamicLibrary/dlLibraryTable/dlLibraryTable.C at line 188
    Could not load "libpetscFoam.so"
libpetscFoam.so: cannot open shared object file: No such file or directory
Processor 141: field transfer
--> FOAM Warning : 
    From void* Foam::dlLibraryTable::openLibrary(const Foam::fileName&, bool)
    in file db/dynamicLibrary/dlLibraryTable/dlLibraryTable.C at line 188
    Could not load "libpetscFoam.so"
libpetscFoam.so: cannot open shared object file: No such file or directory
Processor 142: field transfer
--> FOAM Warning : 
    From void* Foam::dlLibraryTable::openLibrary(const Foam::fileName&, bool)
    in file db/dynamicLibrary/dlLibraryTable/dlLibraryTable.C at line 188
    Could not load "libpetscFoam.so"
libpetscFoam.so: cannot open shared object file: No such file or directory
Processor 143: field transfer
--> FOAM Warning : 
    From void* Foam::dlLibraryTable::openLibrary(const Foam::fileName&, bool)
    in file db/dynamicLibrary/dlLibraryTable/dlLibraryTable.C at line 188
    Could not load "libpetscFoam.so"
libpetscFoam.so: cannot open shared object file: No such file or directory
Processor 144: field transfer
--> FOAM Warning : 
    From void* Foam::dlLibraryTable::openLibrary(const Foam::fileName&, bool)
    in file db/dynamicLibrary/dlLibraryTable/dlLibraryTable.C at line 188
    Could not load "libpetscFoam.so"
libpetscFoam.so: cannot open shared object file: No such file or directory
Processor 145: field transfer
--> FOAM Warning : 
    From void* Foam::dlLibraryTable::openLibrary(const Foam::fileName&, bool)
    in file db/dynamicLibrary/dlLibraryTable/dlLibraryTable.C at line 188
    Could not load "libpetscFoam.so"
libpetscFoam.so: cannot open shared object file: No such file or directory
Processor 146: field transfer
--> FOAM Warning : 
    From void* Foam::dlLibraryTable::openLibrary(const Foam::fileName&, bool)
    in file db/dynamicLibrary/dlLibraryTable/dlLibraryTable.C at line 188
    Could not load "libpetscFoam.so"
libpetscFoam.so: cannot open shared object file: No such file or directory
Processor 147: field transfer
--> FOAM Warning : 
    From void* Foam::dlLibraryTable::openLibrary(const Foam::fileName&, bool)
    in file db/dynamicLibrary/dlLibraryTable/dlLibraryTable.C at line 188
    Could not load "libpetscFoam.so"
libpetscFoam.so: cannot open shared object file: No such file or directory
Processor 148: field transfer
--> FOAM Warning : 
    From void* Foam::dlLibraryTable::openLibrary(const Foam::fileName&, bool)
    in file db/dynamicLibrary/dlLibraryTable/dlLibraryTable.C at line 188
    Could not load "libpetscFoam.so"
libpetscFoam.so: cannot open shared object file: No such file or directory
Processor 149: field transfer
--> FOAM Warning : 
    From void* Foam::dlLibraryTable::openLibrary(const Foam::fileName&, bool)
    in file db/dynamicLibrary/dlLibraryTable/dlLibraryTable.C at line 188
    Could not load "libpetscFoam.so"
libpetscFoam.so: cannot open shared object file: No such file or directory
Processor 150: field transfer
--> FOAM Warning : 
    From void* Foam::dlLibraryTable::openLibrary(const Foam::fileName&, bool)
    in file db/dynamicLibrary/dlLibraryTable/dlLibraryTable.C at line 188
    Could not load "libpetscFoam.so"
libpetscFoam.so: cannot open shared object file: No such file or directory
Processor 151: field transfer
--> FOAM Warning : 
    From void* Foam::dlLibraryTable::openLibrary(const Foam::fileName&, bool)
    in file db/dynamicLibrary/dlLibraryTable/dlLibraryTable.C at line 188
    Could not load "libpetscFoam.so"
libpetscFoam.so: cannot open shared object file: No such file or directory
Processor 152: field transfer
--> FOAM Warning : 
    From void* Foam::dlLibraryTable::openLibrary(const Foam::fileName&, bool)
    in file db/dynamicLibrary/dlLibraryTable/dlLibraryTable.C at line 188
    Could not load "libpetscFoam.so"
libpetscFoam.so: cannot open shared object file: No such file or directory
Processor 153: field transfer
--> FOAM Warning : 
    From void* Foam::dlLibraryTable::openLibrary(const Foam::fileName&, bool)
    in file db/dynamicLibrary/dlLibraryTable/dlLibraryTable.C at line 188
    Could not load "libpetscFoam.so"
libpetscFoam.so: cannot open shared object file: No such file or directory
Processor 154: field transfer
--> FOAM Warning : 
    From void* Foam::dlLibraryTable::openLibrary(const Foam::fileName&, bool)
    in file db/dynamicLibrary/dlLibraryTable/dlLibraryTable.C at line 188
    Could not load "libpetscFoam.so"
libpetscFoam.so: cannot open shared object file: No such file or directory
Processor 155: field transfer
--> FOAM Warning : 
    From void* Foam::dlLibraryTable::openLibrary(const Foam::fileName&, bool)
    in file db/dynamicLibrary/dlLibraryTable/dlLibraryTable.C at line 188
    Could not load "libpetscFoam.so"
libpetscFoam.so: cannot open shared object file: No such file or directory
Processor 156: field transfer
--> FOAM Warning : 
    From void* Foam::dlLibraryTable::openLibrary(const Foam::fileName&, bool)
    in file db/dynamicLibrary/dlLibraryTable/dlLibraryTable.C at line 188
    Could not load "libpetscFoam.so"
libpetscFoam.so: cannot open shared object file: No such file or directory
Processor 157: field transfer
--> FOAM Warning : 
    From void* Foam::dlLibraryTable::openLibrary(const Foam::fileName&, bool)
    in file db/dynamicLibrary/dlLibraryTable/dlLibraryTable.C at line 188
    Could not load "libpetscFoam.so"
libpetscFoam.so: cannot open shared object file: No such file or directory
Processor 158: field transfer
--> FOAM Warning : 
    From void* Foam::dlLibraryTable::openLibrary(const Foam::fileName&, bool)
    in file db/dynamicLibrary/dlLibraryTable/dlLibraryTable.C at line 188
    Could not load "libpetscFoam.so"
libpetscFoam.so: cannot open shared object file: No such file or directory
Processor 159: field transfer
--> FOAM Warning : 
    From void* Foam::dlLibraryTable::openLibrary(const Foam::fileName&, bool)
    in file db/dynamicLibrary/dlLibraryTable/dlLibraryTable.C at line 188
    Could not load "libpetscFoam.so"
libpetscFoam.so: cannot open shared object file: No such file or directory

End

