/*---------------------------------------------------------------------------*\
| =========                 |                                                 |
| \\      /  F ield         | OpenFOAM: The Open Source CFD Toolbox           |
|  \\    /   O peration     | Version:  2306                                  |
|   \\  /    A nd           | Website:  www.openfoam.com                      |
|    \\/     M anipulation  |                                                 |
\*---------------------------------------------------------------------------*/
Build  : a6e826bd55-20230630 OPENFOAM=2306 version=v2306
Arch   : "LSB;label=32;scalar=64"
Exec   : icoFoam -parallel -case /tmp/lidDrivenCavity/workspace/32af53eb499b5202a28b8b78a804ac9e/case
Date   : Dec 20 2023
Time   : 23:32:23
Host   : nla-gpu2.ianm.kit.edu
PID    : 387807
I/O    : uncollated
Case   : /tmp/lidDrivenCavity/workspace/32af53eb499b5202a28b8b78a804ac9e/case
nProcs : 16
Hosts  :
(
    (nla-gpu2.ianm.kit.edu 16)
)
Pstream initialized with:
    floatTransfer      : false
    nProcsSimpleSum    : 0
    nonBlockingExchange: 0 (tuning: 0)
    exchange algorithm : -1
    commsType          : nonBlocking
    polling iterations : 0
trapFpe: Floating point exception trapping enabled (FOAM_SIGFPE).
fileModificationChecking : Monitoring run-time modified files using timeStampMaster (fileModificationSkew 5, maxFileModificationPolls 20)
allowSystemOperations : Allowing user-supplied system call operations

// * * * * * * * * * * * * * * * * * * * * * * * * * * * * * * * * * * * * * //
Create time

--> FOAM Warning : 
    From void* Foam::dlLibraryTable::openLibrary(const Foam::fileName&, bool)
    in file db/dynamicLibrary/dlLibraryTable/dlLibraryTable.C at line 188
    Could not load "libpetscFoam.so"
libpetscFoam.so: cannot open shared object file: No such file or directory
Create mesh for time = 0


PISO: Operating solver in PISO mode

Reading transportProperties

Reading field p

Reading field U

Reading/calculating face flux field phi


Starting time loop

Time = 0.00025

Courant Number mean: 8.24341e-18 max: 2.08167e-14
[INFO] MatrixAssemblyU: 72.512 [ms]
DILUPBiCGStab:  Solving for Ux, Initial residual = 1, Final residual = 0.00994539, No Iterations 5
DILUPBiCGStab:  Solving for Uy:  solution singularity
DILUPBiCGStab:  Solving for Uz:  solution singularity
[INFO] MomentumPredictor: 285.218 [ms]
[INFO] MatrixAssemblyPI: 68.741 [ms]
[INFO] AdjustPhi: 6.862 [ms]
[INFO] ConstrainPressure: 0.021 [ms]
[INFO] MatrixAssemblyPII: 19.691 [ms]
DICPCG:  Solving for p, Initial residual = 1, Final residual = 9.63592e-05, No Iterations 607
[INFO] SolveP: 7049.03 [ms]
time step continuity errors : sum local = 7.39714e-09, global = 1.43009e-22, cumulative = 1.43009e-22
[INFO] ContinuityError: 8.297 [ms]
[INFO] CorrectBoundary: 0.355 [ms]
[INFO] PISOStep: 7179.54 [ms]
[INFO] MatrixAssemblyPI: 66.502 [ms]
[INFO] AdjustPhi: 5.188 [ms]
[INFO] ConstrainPressure: 0.004 [ms]
[INFO] MatrixAssemblyPII: 20.346 [ms]
DICPCG:  Solving for p, Initial residual = 0.786386, Final residual = 9.68947e-05, No Iterations 603
[INFO] SolveP: 6916.2 [ms]
time step continuity errors : sum local = 9.29787e-09, global = 2.3342e-21, cumulative = 2.47721e-21
[INFO] ContinuityError: 8.48 [ms]
[INFO] CorrectBoundary: 0.34 [ms]
[INFO] PISOStep: 7042.68 [ms]
[INFO] TimeStep: 14589.3 [ms]
ExecutionTime = 15.09 s  ClockTime = 15 s

Time = 0.0005

Courant Number mean: 0.0159459 max: 0.412549
[INFO] MatrixAssemblyU: 60.882 [ms]
DILUPBiCGStab:  Solving for Ux, Initial residual = 0.129572, Final residual = 0.0054987, No Iterations 5
DILUPBiCGStab:  Solving for Uy, Initial residual = 0.42697, Final residual = 0.0140636, No Iterations 5
DILUPBiCGStab:  Solving for Uz, Initial residual = 0.987082, Final residual = 0.0342333, No Iterations 5
[INFO] MomentumPredictor: 491.754 [ms]
[INFO] MatrixAssemblyPI: 68.166 [ms]
[INFO] AdjustPhi: 3.723 [ms]
[INFO] ConstrainPressure: 0.009 [ms]
[INFO] MatrixAssemblyPII: 19.906 [ms]
DICPCG:  Solving for p, Initial residual = 0.825168, Final residual = 9.49301e-05, No Iterations 598
[INFO] SolveP: 6861.51 [ms]
time step continuity errors : sum local = 1.3984e-08, global = -1.34352e-22, cumulative = 2.34285e-21
[INFO] ContinuityError: 7.927 [ms]
[INFO] CorrectBoundary: 0.311 [ms]
[INFO] PISOStep: 6986.7 [ms]
[INFO] MatrixAssemblyPI: 66.888 [ms]
[INFO] AdjustPhi: 5.327 [ms]
[INFO] ConstrainPressure: 0.004 [ms]
[INFO] MatrixAssemblyPII: 20.734 [ms]
DICPCG:  Solving for p, Initial residual = 0.768319, Final residual = 9.74688e-05, No Iterations 596
[INFO] SolveP: 6807.69 [ms]
time step continuity errors : sum local = 1.46166e-08, global = 9.29253e-22, cumulative = 3.27211e-21
[INFO] ContinuityError: 7.764 [ms]
[INFO] CorrectBoundary: 0.336 [ms]
[INFO] PISOStep: 6933.07 [ms]
[INFO] TimeStep: 14481.4 [ms]
ExecutionTime = 29.51 s  ClockTime = 30 s

Time = 0.00075

Courant Number mean: 0.0243291 max: 0.472009
[INFO] MatrixAssemblyU: 60.467 [ms]
DILUPBiCGStab:  Solving for Ux, Initial residual = 0.0547792, Final residual = 0.00187256, No Iterations 5
DILUPBiCGStab:  Solving for Uy, Initial residual = 0.182203, Final residual = 0.00762454, No Iterations 5
DILUPBiCGStab:  Solving for Uz, Initial residual = 0.811017, Final residual = 0.025284, No Iterations 5
[INFO] MomentumPredictor: 496.194 [ms]
[INFO] MatrixAssemblyPI: 67.569 [ms]
[INFO] AdjustPhi: 5.349 [ms]
[INFO] ConstrainPressure: 0.005 [ms]
[INFO] MatrixAssemblyPII: 19.806 [ms]
DICPCG:  Solving for p, Initial residual = 0.849312, Final residual = 9.94142e-05, No Iterations 284
[INFO] SolveP: 3257.76 [ms]
time step continuity errors : sum local = 1.45844e-08, global = 9.47949e-22, cumulative = 4.22006e-21
[INFO] ContinuityError: 7.88 [ms]
[INFO] CorrectBoundary: 0.259 [ms]
[INFO] PISOStep: 3384.58 [ms]
[INFO] MatrixAssemblyPI: 66.568 [ms]
[INFO] AdjustPhi: 4.037 [ms]
[INFO] ConstrainPressure: 0.004 [ms]
[INFO] MatrixAssemblyPII: 20.12 [ms]
DICPCG:  Solving for p, Initial residual = 0.815757, Final residual = 9.97085e-05, No Iterations 283
[INFO] SolveP: 3234.73 [ms]
time step continuity errors : sum local = 1.34736e-08, global = 5.83311e-22, cumulative = 4.80337e-21
[INFO] ContinuityError: 6.893 [ms]
[INFO] CorrectBoundary: 0.406 [ms]
[INFO] PISOStep: 3356.83 [ms]
[INFO] TimeStep: 7306.76 [ms]
ExecutionTime = 36.77 s  ClockTime = 37 s

Time = 0.001

Courant Number mean: 0.0291952 max: 0.467752
[INFO] MatrixAssemblyU: 61.392 [ms]
DILUPBiCGStab:  Solving for Ux, Initial residual = 0.0346711, Final residual = 0.00124034, No Iterations 5
DILUPBiCGStab:  Solving for Uy, Initial residual = 0.129195, Final residual = 0.00473643, No Iterations 5
DILUPBiCGStab:  Solving for Uz, Initial residual = 0.614115, Final residual = 0.015651, No Iterations 5
[INFO] MomentumPredictor: 487.138 [ms]
[INFO] MatrixAssemblyPI: 67.925 [ms]
[INFO] AdjustPhi: 3.986 [ms]
[INFO] ConstrainPressure: 0.005 [ms]
[INFO] MatrixAssemblyPII: 19.997 [ms]
DICPCG:  Solving for p, Initial residual = 0.770649, Final residual = 9.83219e-05, No Iterations 283
[INFO] SolveP: 3239.47 [ms]
time step continuity errors : sum local = 1.33841e-08, global = -3.62346e-21, cumulative = 1.1799e-21
[INFO] ContinuityError: 7.409 [ms]
[INFO] CorrectBoundary: 0.334 [ms]
[INFO] PISOStep: 3363.82 [ms]
[INFO] MatrixAssemblyPI: 65.604 [ms]
[INFO] AdjustPhi: 5.439 [ms]
[INFO] ConstrainPressure: 0.004 [ms]
[INFO] MatrixAssemblyPII: 19.858 [ms]
DICPCG:  Solving for p, Initial residual = 0.707987, Final residual = 9.58695e-05, No Iterations 281
[INFO] SolveP: 3246.2 [ms]
time step continuity errors : sum local = 1.22693e-08, global = -2.0811e-21, cumulative = -9.01194e-22
[INFO] ContinuityError: 7.541 [ms]
[INFO] CorrectBoundary: 0.244 [ms]
[INFO] PISOStep: 3369.93 [ms]
[INFO] TimeStep: 7290.43 [ms]
ExecutionTime = 44.04 s  ClockTime = 45 s

Time = 0.00125

Courant Number mean: 0.0333378 max: 0.472927
[INFO] MatrixAssemblyU: 59.557 [ms]
DILUPBiCGStab:  Solving for Ux, Initial residual = 0.0271817, Final residual = 0.000904812, No Iterations 5
DILUPBiCGStab:  Solving for Uy, Initial residual = 0.0813135, Final residual = 0.00355913, No Iterations 5
DILUPBiCGStab:  Solving for Uz, Initial residual = 0.472211, Final residual = 0.0130714, No Iterations 5
[INFO] MomentumPredictor: 486.98 [ms]
[INFO] MatrixAssemblyPI: 67.834 [ms]
[INFO] AdjustPhi: 4.056 [ms]
[INFO] ConstrainPressure: 0.009 [ms]
[INFO] MatrixAssemblyPII: 19.737 [ms]
DICPCG:  Solving for p, Initial residual = 0.776302, Final residual = 9.69358e-05, No Iterations 580
[INFO] SolveP: 6646.05 [ms]
time step continuity errors : sum local = 9.81362e-09, global = -1.21897e-21, cumulative = -2.12016e-21
[INFO] ContinuityError: 6.838 [ms]
[INFO] CorrectBoundary: 0.408 [ms]
[INFO] PISOStep: 6769.73 [ms]
[INFO] MatrixAssemblyPI: 65.918 [ms]
[INFO] AdjustPhi: 3.755 [ms]
[INFO] ConstrainPressure: 0.004 [ms]
[INFO] MatrixAssemblyPII: 19.968 [ms]
DICPCG:  Solving for p, Initial residual = 0.725211, Final residual = 9.68461e-05, No Iterations 579
[INFO] SolveP: 6597.1 [ms]
time step continuity errors : sum local = 9.6753e-09, global = -1.6353e-22, cumulative = -2.28369e-21
[INFO] ContinuityError: 8.417 [ms]
[INFO] CorrectBoundary: 0.313 [ms]
[INFO] PISOStep: 6720.49 [ms]
[INFO] TimeStep: 14045.3 [ms]
ExecutionTime = 58.01 s  ClockTime = 59 s

Time = 0.0015

Courant Number mean: 0.0366387 max: 0.475558
[INFO] MatrixAssemblyU: 59.713 [ms]
DILUPBiCGStab:  Solving for Ux, Initial residual = 0.0204369, Final residual = 0.000644476, No Iterations 5
DILUPBiCGStab:  Solving for Uy, Initial residual = 0.0659056, Final residual = 0.00245191, No Iterations 5
DILUPBiCGStab:  Solving for Uz, Initial residual = 0.342315, Final residual = 0.00889109, No Iterations 5
[INFO] MomentumPredictor: 489.714 [ms]
[INFO] MatrixAssemblyPI: 68.046 [ms]
[INFO] AdjustPhi: 3.916 [ms]
[INFO] ConstrainPressure: 0.005 [ms]
[INFO] MatrixAssemblyPII: 19.959 [ms]
DICPCG:  Solving for p, Initial residual = 0.683501, Final residual = 9.96484e-05, No Iterations 575
[INFO] SolveP: 6603.42 [ms]
time step continuity errors : sum local = 9.2862e-09, global = -1.82981e-21, cumulative = -4.1135e-21
[INFO] ContinuityError: 7.09 [ms]
[INFO] CorrectBoundary: 0.36 [ms]
[INFO] PISOStep: 6727.24 [ms]
[INFO] MatrixAssemblyPI: 65.435 [ms]
[INFO] AdjustPhi: 5.182 [ms]
[INFO] ConstrainPressure: 0.004 [ms]
[INFO] MatrixAssemblyPII: 19.534 [ms]
DICPCG:  Solving for p, Initial residual = 0.623008, Final residual = 9.81971e-05, No Iterations 574
[INFO] SolveP: 6509.45 [ms]
time step continuity errors : sum local = 9.18417e-09, global = -1.08489e-21, cumulative = -5.19839e-21
[INFO] ContinuityError: 7.49 [ms]
[INFO] CorrectBoundary: 0.302 [ms]
[INFO] PISOStep: 6632.4 [ms]
[INFO] TimeStep: 13917.7 [ms]
ExecutionTime = 71.86 s  ClockTime = 73 s

Time = 0.00175

Courant Number mean: 0.0395542 max: 0.477505
[INFO] MatrixAssemblyU: 60.915 [ms]
DILUPBiCGStab:  Solving for Ux, Initial residual = 0.0174574, Final residual = 0.000513819, No Iterations 5
DILUPBiCGStab:  Solving for Uy, Initial residual = 0.0490116, Final residual = 0.00179512, No Iterations 5
DILUPBiCGStab:  Solving for Uz, Initial residual = 0.259546, Final residual = 0.00751212, No Iterations 5
[INFO] MomentumPredictor: 487.134 [ms]
[INFO] MatrixAssemblyPI: 66.868 [ms]
[INFO] AdjustPhi: 5.009 [ms]
[INFO] ConstrainPressure: 0.006 [ms]
[INFO] MatrixAssemblyPII: 19.943 [ms]
DICPCG:  Solving for p, Initial residual = 0.679448, Final residual = 9.84461e-05, No Iterations 571
[INFO] SolveP: 6501.17 [ms]
time step continuity errors : sum local = 7.66502e-09, global = -2.24104e-21, cumulative = -7.43943e-21
[INFO] ContinuityError: 8.338 [ms]
[INFO] CorrectBoundary: 0.265 [ms]
[INFO] PISOStep: 6625.57 [ms]
[INFO] MatrixAssemblyPI: 66.733 [ms]
[INFO] AdjustPhi: 4.772 [ms]
[INFO] ConstrainPressure: 0.005 [ms]
[INFO] MatrixAssemblyPII: 20.505 [ms]
DICPCG:  Solving for p, Initial residual = 0.620235, Final residual = 9.69447e-05, No Iterations 281
[INFO] SolveP: 3221.18 [ms]
time step continuity errors : sum local = 9.10651e-09, global = -2.39717e-21, cumulative = -9.8366e-21
[INFO] ContinuityError: 7.195 [ms]
[INFO] CorrectBoundary: 0.387 [ms]
[INFO] PISOStep: 3344.92 [ms]
[INFO] TimeStep: 10526.9 [ms]
ExecutionTime = 82.35 s  ClockTime = 83 s

Time = 0.002

Courant Number mean: 0.042079 max: 0.479209
[INFO] MatrixAssemblyU: 61.404 [ms]
DILUPBiCGStab:  Solving for Ux, Initial residual = 0.0142697, Final residual = 0.000393574, No Iterations 5
DILUPBiCGStab:  Solving for Uy, Initial residual = 0.041941, Final residual = 0.00138952, No Iterations 5
DILUPBiCGStab:  Solving for Uz, Initial residual = 0.210508, Final residual = 0.00662807, No Iterations 5
[INFO] MomentumPredictor: 488.874 [ms]
[INFO] MatrixAssemblyPI: 68.331 [ms]
[INFO] AdjustPhi: 3.67 [ms]
[INFO] ConstrainPressure: 0.004 [ms]
[INFO] MatrixAssemblyPII: 20.165 [ms]
DICPCG:  Solving for p, Initial residual = 0.588453, Final residual = 9.82319e-05, No Iterations 579
[INFO] SolveP: 6572.45 [ms]
time step continuity errors : sum local = 7.27907e-09, global = -2.0257e-21, cumulative = -1.18623e-20
[INFO] ContinuityError: 7.132 [ms]
[INFO] CorrectBoundary: 0.357 [ms]
[INFO] PISOStep: 6696.4 [ms]
[INFO] MatrixAssemblyPI: 65.901 [ms]
[INFO] AdjustPhi: 4.629 [ms]
[INFO] ConstrainPressure: 0.003 [ms]
[INFO] MatrixAssemblyPII: 19.891 [ms]
DICPCG:  Solving for p, Initial residual = 0.531143, Final residual = 9.96529e-05, No Iterations 575
[INFO] SolveP: 6557.16 [ms]
time step continuity errors : sum local = 7.36918e-09, global = 4.37779e-22, cumulative = -1.14245e-20
[INFO] ContinuityError: 7.333 [ms]
[INFO] CorrectBoundary: 0.314 [ms]
[INFO] PISOStep: 6680.57 [ms]
[INFO] TimeStep: 13935.3 [ms]
ExecutionTime = 96.22 s  ClockTime = 97 s

Time = 0.00225

Courant Number mean: 0.0443654 max: 0.480354
[INFO] MatrixAssemblyU: 59.714 [ms]
DILUPBiCGStab:  Solving for Ux, Initial residual = 0.012601, Final residual = 0.000326222, No Iterations 5
DILUPBiCGStab:  Solving for Uy, Initial residual = 0.03373, Final residual = 0.000984785, No Iterations 5
DILUPBiCGStab:  Solving for Uz, Initial residual = 0.169963, Final residual = 0.00581412, No Iterations 5
[INFO] MomentumPredictor: 491.329 [ms]
[INFO] MatrixAssemblyPI: 66.599 [ms]
[INFO] AdjustPhi: 5.287 [ms]
[INFO] ConstrainPressure: 0.005 [ms]
[INFO] MatrixAssemblyPII: 19.999 [ms]
DICPCG:  Solving for p, Initial residual = 0.57578, Final residual = 9.69368e-05, No Iterations 569
[INFO] SolveP: 6523.4 [ms]
time step continuity errors : sum local = 6.22223e-09, global = -3.31107e-21, cumulative = -1.47356e-20
[INFO] ContinuityError: 7.725 [ms]
[INFO] CorrectBoundary: 0.399 [ms]
[INFO] PISOStep: 6647.91 [ms]
[INFO] MatrixAssemblyPI: 68.017 [ms]
[INFO] AdjustPhi: 3.691 [ms]
[INFO] ConstrainPressure: 0.004 [ms]
[INFO] MatrixAssemblyPII: 19.973 [ms]
DICPCG:  Solving for p, Initial residual = 0.51528, Final residual = 9.93481e-05, No Iterations 568
[INFO] SolveP: 6453.22 [ms]
time step continuity errors : sum local = 6.37594e-09, global = -4.40399e-22, cumulative = -1.5176e-20
[INFO] ContinuityError: 6.864 [ms]
[INFO] CorrectBoundary: 0.364 [ms]
[INFO] PISOStep: 6576.48 [ms]
[INFO] TimeStep: 13783.8 [ms]
ExecutionTime = 109.93 s  ClockTime = 111 s

Time = 0.0025

Courant Number mean: 0.0464194 max: 0.481463
[INFO] MatrixAssemblyU: 60.211 [ms]
DILUPBiCGStab:  Solving for Ux, Initial residual = 0.0108374, Final residual = 0.000262461, No Iterations 5
DILUPBiCGStab:  Solving for Uy, Initial residual = 0.0295381, Final residual = 0.000805724, No Iterations 5
DILUPBiCGStab:  Solving for Uz, Initial residual = 0.134647, Final residual = 0.00459049, No Iterations 5
[INFO] MomentumPredictor: 485.657 [ms]
[INFO] MatrixAssemblyPI: 67.68 [ms]
[INFO] AdjustPhi: 4.305 [ms]
[INFO] ConstrainPressure: 0.007 [ms]
[INFO] MatrixAssemblyPII: 20.103 [ms]
DICPCG:  Solving for p, Initial residual = 0.499281, Final residual = 9.78171e-05, No Iterations 570
[INFO] SolveP: 6466.51 [ms]
time step continuity errors : sum local = 6.09543e-09, global = -2.11076e-21, cumulative = -1.72868e-20
[INFO] ContinuityError: 7.199 [ms]
[INFO] CorrectBoundary: 0.323 [ms]
[INFO] PISOStep: 6590.17 [ms]
[INFO] MatrixAssemblyPI: 65.938 [ms]
[INFO] AdjustPhi: 3.774 [ms]
[INFO] ConstrainPressure: 0.004 [ms]
[INFO] MatrixAssemblyPII: 19.971 [ms]
DICPCG:  Solving for p, Initial residual = 0.446813, Final residual = 9.91746e-05, No Iterations 569
[INFO] SolveP: 6500.78 [ms]
time step continuity errors : sum local = 6.15469e-09, global = -6.96602e-22, cumulative = -1.79834e-20
[INFO] ContinuityError: 7.244 [ms]
[INFO] CorrectBoundary: 0.387 [ms]
[INFO] PISOStep: 6623.31 [ms]
[INFO] TimeStep: 13767.6 [ms]
ExecutionTime = 123.64 s  ClockTime = 125 s

Time = 0.00275

Courant Number mean: 0.0483075 max: 0.482233
[INFO] MatrixAssemblyU: 58.44 [ms]
DILUPBiCGStab:  Solving for Ux, Initial residual = 0.00970502, Final residual = 0.000220572, No Iterations 5
DILUPBiCGStab:  Solving for Uy, Initial residual = 0.0250057, Final residual = 0.000585404, No Iterations 5
DILUPBiCGStab:  Solving for Uz, Initial residual = 0.112698, Final residual = 0.0043653, No Iterations 5
[INFO] MomentumPredictor: 489.139 [ms]
[INFO] MatrixAssemblyPI: 67.295 [ms]
[INFO] AdjustPhi: 4.659 [ms]
[INFO] ConstrainPressure: 0.005 [ms]
[INFO] MatrixAssemblyPII: 19.911 [ms]
DICPCG:  Solving for p, Initial residual = 0.475182, Final residual = 9.80149e-05, No Iterations 567
[INFO] SolveP: 6472.14 [ms]
time step continuity errors : sum local = 5.51905e-09, global = -2.22967e-21, cumulative = -2.0213e-20
[INFO] ContinuityError: 7.506 [ms]
[INFO] CorrectBoundary: 0.265 [ms]
[INFO] PISOStep: 6597.15 [ms]
[INFO] MatrixAssemblyPI: 66.744 [ms]
[INFO] AdjustPhi: 3.956 [ms]
[INFO] ConstrainPressure: 0.004 [ms]
[INFO] MatrixAssemblyPII: 19.676 [ms]
DICPCG:  Solving for p, Initial residual = 0.421192, Final residual = 9.18609e-05, No Iterations 567
[INFO] SolveP: 6490.38 [ms]
time step continuity errors : sum local = 5.17846e-09, global = -5.05919e-22, cumulative = -2.07189e-20
[INFO] ContinuityError: 6.598 [ms]
[INFO] CorrectBoundary: 0.315 [ms]
[INFO] PISOStep: 6612.37 [ms]
[INFO] TimeStep: 13765.3 [ms]
ExecutionTime = 137.34 s  ClockTime = 138 s

Time = 0.003

Courant Number mean: 0.0500405 max: 0.483024
[INFO] MatrixAssemblyU: 60.441 [ms]
DILUPBiCGStab:  Solving for Ux, Initial residual = 0.00861333, Final residual = 0.00018401, No Iterations 5
DILUPBiCGStab:  Solving for Uy, Initial residual = 0.0223296, Final residual = 0.000483523, No Iterations 5
DILUPBiCGStab:  Solving for Uz, Initial residual = 0.0937308, Final residual = 0.00366314, No Iterations 5
[INFO] MomentumPredictor: 486.368 [ms]
[INFO] MatrixAssemblyPI: 67.339 [ms]
[INFO] AdjustPhi: 4.682 [ms]
[INFO] ConstrainPressure: 0.006 [ms]
[INFO] MatrixAssemblyPII: 19.917 [ms]
DICPCG:  Solving for p, Initial residual = 0.417897, Final residual = 9.66039e-05, No Iterations 563
[INFO] SolveP: 6464.66 [ms]
time step continuity errors : sum local = 5.28434e-09, global = -3.23394e-21, cumulative = -2.39529e-20
[INFO] ContinuityError: 7.208 [ms]
[INFO] CorrectBoundary: 0.4 [ms]
[INFO] PISOStep: 6588.36 [ms]
[INFO] MatrixAssemblyPI: 65.551 [ms]
[INFO] AdjustPhi: 4.075 [ms]
[INFO] ConstrainPressure: 0.004 [ms]
[INFO] MatrixAssemblyPII: 19.905 [ms]
DICPCG:  Solving for p, Initial residual = 0.371487, Final residual = 9.98887e-05, No Iterations 565
[INFO] SolveP: 6488.38 [ms]
time step continuity errors : sum local = 5.44045e-09, global = -4.38876e-21, cumulative = -2.83416e-20
[INFO] ContinuityError: 6.976 [ms]
[INFO] CorrectBoundary: 0.369 [ms]
[INFO] PISOStep: 6609.55 [ms]
[INFO] TimeStep: 13753 [ms]
ExecutionTime = 151.03 s  ClockTime = 152 s

Time = 0.00325

Courant Number mean: 0.0516504 max: 0.483587
[INFO] MatrixAssemblyU: 60.391 [ms]
DILUPBiCGStab:  Solving for Ux, Initial residual = 0.00781586, Final residual = 0.000157159, No Iterations 5
DILUPBiCGStab:  Solving for Uy, Initial residual = 0.0195486, Final residual = 0.000373974, No Iterations 5
DILUPBiCGStab:  Solving for Uz, Initial residual = 0.0805166, Final residual = 0.0034531, No Iterations 5
[INFO] MomentumPredictor: 489.633 [ms]
[INFO] MatrixAssemblyPI: 67.876 [ms]
[INFO] AdjustPhi: 3.936 [ms]
[INFO] ConstrainPressure: 0.005 [ms]
[INFO] MatrixAssemblyPII: 20.024 [ms]
DICPCG:  Solving for p, Initial residual = 0.387321, Final residual = 9.67081e-05, No Iterations 562
[INFO] SolveP: 6432.84 [ms]
time step continuity errors : sum local = 4.94294e-09, global = -4.07958e-22, cumulative = -2.87496e-20
[INFO] ContinuityError: 7.422 [ms]
[INFO] CorrectBoundary: 0.348 [ms]
[INFO] PISOStep: 6557.07 [ms]
[INFO] MatrixAssemblyPI: 64.551 [ms]
[INFO] AdjustPhi: 6.104 [ms]
[INFO] ConstrainPressure: 0.004 [ms]
[INFO] MatrixAssemblyPII: 20.107 [ms]
DICPCG:  Solving for p, Initial residual = 0.341305, Final residual = 9.95455e-05, No Iterations 559
[INFO] SolveP: 6366.52 [ms]
time step continuity errors : sum local = 5.0949e-09, global = -2.44593e-21, cumulative = -3.11955e-20
[INFO] ContinuityError: 7.178 [ms]
[INFO] CorrectBoundary: 0.344 [ms]
[INFO] PISOStep: 6489.14 [ms]
[INFO] TimeStep: 13604.3 [ms]
ExecutionTime = 164.57 s  ClockTime = 166 s

Time = 0.0035

Courant Number mean: 0.0531455 max: 0.484182
[INFO] MatrixAssemblyU: 60.274 [ms]
DILUPBiCGStab:  Solving for Ux, Initial residual = 0.00708176, Final residual = 0.000134898, No Iterations 5
DILUPBiCGStab:  Solving for Uy, Initial residual = 0.0177206, Final residual = 0.0003087, No Iterations 5
DILUPBiCGStab:  Solving for Uz, Initial residual = 0.0688878, Final residual = 0.00295666, No Iterations 5
[INFO] MomentumPredictor: 485.771 [ms]
[INFO] MatrixAssemblyPI: 67.52 [ms]
[INFO] AdjustPhi: 4.467 [ms]
[INFO] ConstrainPressure: 0.008 [ms]
[INFO] MatrixAssemblyPII: 20.05 [ms]
DICPCG:  Solving for p, Initial residual = 0.345392, Final residual = 9.64889e-05, No Iterations 565
[INFO] SolveP: 6414.98 [ms]
time step continuity errors : sum local = 4.77187e-09, global = -2.75463e-21, cumulative = -3.39502e-20
[INFO] ContinuityError: 7.117 [ms]
[INFO] CorrectBoundary: 0.262 [ms]
[INFO] PISOStep: 6539.67 [ms]
[INFO] MatrixAssemblyPI: 66.906 [ms]
[INFO] AdjustPhi: 4.228 [ms]
[INFO] ConstrainPressure: 0.005 [ms]
[INFO] MatrixAssemblyPII: 19.864 [ms]
DICPCG:  Solving for p, Initial residual = 0.305952, Final residual = 9.87008e-05, No Iterations 564
[INFO] SolveP: 6440.27 [ms]
time step continuity errors : sum local = 4.86243e-09, global = -5.05402e-21, cumulative = -3.90042e-20
[INFO] ContinuityError: 7.065 [ms]
[INFO] CorrectBoundary: 0.376 [ms]
[INFO] PISOStep: 6563.29 [ms]
[INFO] TimeStep: 13657.3 [ms]
ExecutionTime = 178.17 s  ClockTime = 179 s

Time = 0.00375

Courant Number mean: 0.0545471 max: 0.484622
[INFO] MatrixAssemblyU: 59.923 [ms]
DILUPBiCGStab:  Solving for Ux, Initial residual = 0.00649279, Final residual = 0.000116872, No Iterations 5
DILUPBiCGStab:  Solving for Uy, Initial residual = 0.0158788, Final residual = 0.000257826, No Iterations 5
DILUPBiCGStab:  Solving for Uz, Initial residual = 0.0597804, Final residual = 0.00271904, No Iterations 5
[INFO] MomentumPredictor: 488.883 [ms]
[INFO] MatrixAssemblyPI: 67.492 [ms]
[INFO] AdjustPhi: 4.401 [ms]
[INFO] ConstrainPressure: 0.005 [ms]
[INFO] MatrixAssemblyPII: 19.965 [ms]
DICPCG:  Solving for p, Initial residual = 0.312973, Final residual = 9.93958e-05, No Iterations 557
[INFO] SolveP: 6356.09 [ms]
time step continuity errors : sum local = 4.71524e-09, global = -4.55776e-21, cumulative = -4.35619e-20
[INFO] ContinuityError: 6.98 [ms]
[INFO] CorrectBoundary: 0.338 [ms]
[INFO] PISOStep: 6479.59 [ms]
[INFO] MatrixAssemblyPI: 65.186 [ms]
[INFO] AdjustPhi: 4.765 [ms]
[INFO] ConstrainPressure: 0.003 [ms]
[INFO] MatrixAssemblyPII: 19.808 [ms]
DICPCG:  Solving for p, Initial residual = 0.275113, Final residual = 9.88376e-05, No Iterations 256
[INFO] SolveP: 2937.57 [ms]
time step continuity errors : sum local = 5.53484e-09, global = -3.70908e-21, cumulative = -4.7271e-20
[INFO] ContinuityError: 6.835 [ms]
[INFO] CorrectBoundary: 0.305 [ms]
[INFO] PISOStep: 3058.76 [ms]
[INFO] TimeStep: 10095.2 [ms]
ExecutionTime = 188.22 s  ClockTime = 189 s

Time = 0.004

Courant Number mean: 0.0558602 max: 0.485085
[INFO] MatrixAssemblyU: 59.961 [ms]
DILUPBiCGStab:  Solving for Ux, Initial residual = 0.00596024, Final residual = 0.000102627, No Iterations 5
DILUPBiCGStab:  Solving for Uy, Initial residual = 0.0146366, Final residual = 0.00021718, No Iterations 5
DILUPBiCGStab:  Solving for Uz, Initial residual = 0.0547539, Final residual = 0.00250841, No Iterations 5
[INFO] MomentumPredictor: 484.98 [ms]
[INFO] MatrixAssemblyPI: 67.348 [ms]
[INFO] AdjustPhi: 4.498 [ms]
[INFO] ConstrainPressure: 0.007 [ms]
[INFO] MatrixAssemblyPII: 21.123 [ms]
DICPCG:  Solving for p, Initial residual = 0.282523, Final residual = 9.57169e-05, No Iterations 580
[INFO] SolveP: 6601.56 [ms]
time step continuity errors : sum local = 4.37806e-09, global = -1.68788e-21, cumulative = -4.89589e-20
[INFO] ContinuityError: 7.17 [ms]
[INFO] CorrectBoundary: 0.294 [ms]
[INFO] PISOStep: 6726.99 [ms]
[INFO] MatrixAssemblyPI: 64.822 [ms]
[INFO] AdjustPhi: 6.002 [ms]
[INFO] ConstrainPressure: 0.004 [ms]
[INFO] MatrixAssemblyPII: 19.983 [ms]
DICPCG:  Solving for p, Initial residual = 0.249461, Final residual = 9.74469e-05, No Iterations 579
[INFO] SolveP: 6661.39 [ms]
time step continuity errors : sum local = 4.44424e-09, global = -2.96802e-21, cumulative = -5.19269e-20
[INFO] ContinuityError: 7.962 [ms]
[INFO] CorrectBoundary: 0.674 [ms]
[INFO] PISOStep: 6785.26 [ms]
[INFO] TimeStep: 14065.4 [ms]
ExecutionTime = 202.22 s  ClockTime = 203 s

Time = 0.00425

Courant Number mean: 0.0570985 max: 0.485441
[INFO] MatrixAssemblyU: 60.514 [ms]
DILUPBiCGStab:  Solving for Ux, Initial residual = 0.00553173, Final residual = 9.01753e-05, No Iterations 5
DILUPBiCGStab:  Solving for Uy, Initial residual = 0.0133038, Final residual = 0.000193778, No Iterations 5
DILUPBiCGStab:  Solving for Uz, Initial residual = 0.0485122, Final residual = 0.00220837, No Iterations 5
[INFO] MomentumPredictor: 486.817 [ms]
[INFO] MatrixAssemblyPI: 67.288 [ms]
[INFO] AdjustPhi: 4.828 [ms]
[INFO] ConstrainPressure: 0.007 [ms]
[INFO] MatrixAssemblyPII: 19.956 [ms]
DICPCG:  Solving for p, Initial residual = 0.252417, Final residual = 9.94096e-05, No Iterations 559
[INFO] SolveP: 6356.73 [ms]
time step continuity errors : sum local = 4.44539e-09, global = -5.37645e-22, cumulative = -5.24646e-20
[INFO] ContinuityError: 7.116 [ms]
[INFO] CorrectBoundary: 0.334 [ms]
[INFO] PISOStep: 6480.47 [ms]
[INFO] MatrixAssemblyPI: 64.475 [ms]
[INFO] AdjustPhi: 5.733 [ms]
[INFO] ConstrainPressure: 0.004 [ms]
[INFO] MatrixAssemblyPII: 19.891 [ms]
DICPCG:  Solving for p, Initial residual = 0.221341, Final residual = 9.99605e-05, No Iterations 558
[INFO] SolveP: 6373.82 [ms]
time step continuity errors : sum local = 4.47435e-09, global = -4.51071e-21, cumulative = -5.69753e-20
[INFO] ContinuityError: 6.983 [ms]
[INFO] CorrectBoundary: 0.429 [ms]
[INFO] PISOStep: 6495.98 [ms]
[INFO] TimeStep: 13531.9 [ms]
ExecutionTime = 215.69 s  ClockTime = 217 s

Time = 0.0045

Courant Number mean: 0.0582669 max: 0.485813
[INFO] MatrixAssemblyU: 60.049 [ms]
DILUPBiCGStab:  Solving for Ux, Initial residual = 0.00513528, Final residual = 8.05139e-05, No Iterations 5
DILUPBiCGStab:  Solving for Uy, Initial residual = 0.0123183, Final residual = 0.000167124, No Iterations 5
DILUPBiCGStab:  Solving for Uz, Initial residual = 0.041909, Final residual = 0.00187315, No Iterations 5
[INFO] MomentumPredictor: 486.545 [ms]
[INFO] MatrixAssemblyPI: 67.462 [ms]
[INFO] AdjustPhi: 4.339 [ms]
[INFO] ConstrainPressure: 0.006 [ms]
[INFO] MatrixAssemblyPII: 20.005 [ms]
DICPCG:  Solving for p, Initial residual = 0.229258, Final residual = 9.74813e-05, No Iterations 561
[INFO] SolveP: 6380.15 [ms]
time step continuity errors : sum local = 4.20116e-09, global = -4.19679e-21, cumulative = -6.11721e-20
[INFO] ContinuityError: 7.122 [ms]
[INFO] CorrectBoundary: 0.332 [ms]
[INFO] PISOStep: 6503.5 [ms]
[INFO] MatrixAssemblyPI: 65.719 [ms]
[INFO] AdjustPhi: 4.069 [ms]
[INFO] ConstrainPressure: 0.004 [ms]
[INFO] MatrixAssemblyPII: 20.03 [ms]
DICPCG:  Solving for p, Initial residual = 0.201841, Final residual = 9.70242e-05, No Iterations 561
[INFO] SolveP: 6422.7 [ms]
time step continuity errors : sum local = 4.17208e-09, global = -4.68986e-21, cumulative = -6.58619e-20
[INFO] ContinuityError: 7.656 [ms]
[INFO] CorrectBoundary: 0.268 [ms]
[INFO] PISOStep: 6545.44 [ms]
[INFO] TimeStep: 13603.6 [ms]
ExecutionTime = 229.23 s  ClockTime = 231 s

Time = 0.00475

Courant Number mean: 0.0593737 max: 0.486111
[INFO] MatrixAssemblyU: 61.009 [ms]
DILUPBiCGStab:  Solving for Ux, Initial residual = 0.00477994, Final residual = 7.1353e-05, No Iterations 5
DILUPBiCGStab:  Solving for Uy, Initial residual = 0.0113548, Final residual = 0.00015437, No Iterations 5
DILUPBiCGStab:  Solving for Uz, Initial residual = 0.0373699, Final residual = 0.0016684, No Iterations 5
[INFO] MomentumPredictor: 486.238 [ms]
[INFO] MatrixAssemblyPI: 68.079 [ms]
[INFO] AdjustPhi: 3.938 [ms]
[INFO] ConstrainPressure: 0.005 [ms]
[INFO] MatrixAssemblyPII: 19.949 [ms]
DICPCG:  Solving for p, Initial residual = 0.203197, Final residual = 9.53575e-05, No Iterations 556
[INFO] SolveP: 6333.99 [ms]
time step continuity errors : sum local = 4.06692e-09, global = -6.11989e-22, cumulative = -6.64739e-20
[INFO] ContinuityError: 6.975 [ms]
[INFO] CorrectBoundary: 0.354 [ms]
[INFO] PISOStep: 6457.56 [ms]
[INFO] MatrixAssemblyPI: 65.885 [ms]
[INFO] AdjustPhi: 4.108 [ms]
[INFO] ConstrainPressure: 0.004 [ms]
[INFO] MatrixAssemblyPII: 19.849 [ms]
DICPCG:  Solving for p, Initial residual = 0.177866, Final residual = 9.59598e-05, No Iterations 555
[INFO] SolveP: 6324.43 [ms]
time step continuity errors : sum local = 4.09473e-09, global = -4.08156e-21, cumulative = -7.05555e-20
[INFO] ContinuityError: 7.582 [ms]
[INFO] CorrectBoundary: 0.337 [ms]
[INFO] PISOStep: 6447.08 [ms]
[INFO] TimeStep: 13460.1 [ms]
ExecutionTime = 242.62 s  ClockTime = 244 s

Time = 0.005

Courant Number mean: 0.0604236 max: 0.486416
[INFO] MatrixAssemblyU: 60.436 [ms]
DILUPBiCGStab:  Solving for Ux, Initial residual = 0.00447756, Final residual = 6.45768e-05, No Iterations 5
DILUPBiCGStab:  Solving for Uy, Initial residual = 0.0106035, Final residual = 0.000136065, No Iterations 5
DILUPBiCGStab:  Solving for Uz, Initial residual = 0.0335235, Final residual = 0.00144081, No Iterations 5
[INFO] MomentumPredictor: 490.76 [ms]
[INFO] MatrixAssemblyPI: 67.46 [ms]
[INFO] AdjustPhi: 4.949 [ms]
[INFO] ConstrainPressure: 0.005 [ms]
[INFO] MatrixAssemblyPII: 19.834 [ms]
DICPCG:  Solving for p, Initial residual = 0.184581, Final residual = 9.36253e-05, No Iterations 558
[INFO] SolveP: 6360.95 [ms]
time step continuity errors : sum local = 3.85718e-09, global = -3.05906e-21, cumulative = -7.36145e-20
[INFO] ContinuityError: 6.901 [ms]
[INFO] CorrectBoundary: 0.356 [ms]
[INFO] PISOStep: 6484.9 [ms]
[INFO] MatrixAssemblyPI: 64.251 [ms]
[INFO] AdjustPhi: 6.015 [ms]
[INFO] ConstrainPressure: 0.004 [ms]
[INFO] MatrixAssemblyPII: 19.921 [ms]
DICPCG:  Solving for p, Initial residual = 0.162142, Final residual = 9.83658e-05, No Iterations 557
[INFO] SolveP: 6343.6 [ms]
time step continuity errors : sum local = 4.04594e-09, global = -1.50922e-21, cumulative = -7.51238e-20
[INFO] ContinuityError: 6.833 [ms]
[INFO] CorrectBoundary: 0.386 [ms]
[INFO] PISOStep: 6465.27 [ms]
[INFO] TimeStep: 13509.7 [ms]
ExecutionTime = 256.08 s  ClockTime = 258 s

End

Finalising parallel run
