/*---------------------------------------------------------------------------*\
| =========                 |                                                 |
| \\      /  F ield         | OpenFOAM: The Open Source CFD Toolbox           |
|  \\    /   O peration     | Version:  2306                                  |
|   \\  /    A nd           | Website:  www.openfoam.com                      |
|    \\/     M anipulation  |                                                 |
\*---------------------------------------------------------------------------*/
Build  : a6e826bd55-20230630 OPENFOAM=2306 version=v2306
Arch   : "LSB;label=32;scalar=64"
Exec   : icoFoam -parallel -case /tmp/lidDrivenCavity/workspace/0646b56b3735218d9e3d81460c7c1988/case
Date   : Dec 17 2023
Time   : 00:33:12
Host   : nla-gpu2.ianm.kit.edu
PID    : 187125
I/O    : uncollated
Case   : /tmp/lidDrivenCavity/workspace/0646b56b3735218d9e3d81460c7c1988/case
nProcs : 16
Hosts  :
(
    (nla-gpu2.ianm.kit.edu 16)
)
Pstream initialized with:
    floatTransfer      : false
    nProcsSimpleSum    : 0
    nonBlockingExchange: 0 (tuning: 0)
    exchange algorithm : -1
    commsType          : nonBlocking
    polling iterations : 0
trapFpe: Floating point exception trapping enabled (FOAM_SIGFPE).
fileModificationChecking : Monitoring run-time modified files using timeStampMaster (fileModificationSkew 5, maxFileModificationPolls 20)
allowSystemOperations : Allowing user-supplied system call operations

// * * * * * * * * * * * * * * * * * * * * * * * * * * * * * * * * * * * * * //
Create time

--> FOAM Warning : 
    From void* Foam::dlLibraryTable::openLibrary(const Foam::fileName&, bool)
    in file db/dynamicLibrary/dlLibraryTable/dlLibraryTable.C at line 188
    Could not load "libpetscFoam.so"
libpetscFoam.so: cannot open shared object file: No such file or directory
Create mesh for time = 0


PISO: Operating solver in PISO mode

Reading transportProperties

Reading field p

Reading field U

Reading/calculating face flux field phi


Starting time loop

Time = 0.000125

Courant Number mean: 8.02505e-18 max: 4.85723e-14
[INFO] MatrixAssemblyU: 581.124 [ms]
DILUPBiCGStab:  Solving for Ux, Initial residual = 1, Final residual = 0.0215184, No Iterations 5
DILUPBiCGStab:  Solving for Uy:  solution singularity
DILUPBiCGStab:  Solving for Uz:  solution singularity
[INFO] MomentumPredictor: 2267.82 [ms]
[INFO] MatrixAssemblyPI: 590.418 [ms]
[INFO] AdjustPhi: 31.424 [ms]
[INFO] ConstrainPressure: 0.015 [ms]
[INFO] MatrixAssemblyPII: 168.667 [ms]
nonePCG:  Solving for p, Initial residual = 1, Final residual = 9.90318e-05, No Iterations 3251
[INFO] SolveP: 220110 [ms]
time step continuity errors : sum local = 2.51219e-09, global = -2.17125e-22, cumulative = -2.17125e-22
[INFO] ContinuityError: 69.936 [ms]
[INFO] CorrectBoundary: 2.162 [ms]
[INFO] PISOStep: 221160 [ms]
[INFO] MatrixAssemblyPI: 557.664 [ms]
[INFO] AdjustPhi: 30.619 [ms]
[INFO] ConstrainPressure: 0.005 [ms]
[INFO] MatrixAssemblyPII: 169.519 [ms]
nonePCG:  Solving for p, Initial residual = 0.822079, Final residual = 9.89908e-05, No Iterations 3237
[INFO] SolveP: 218646 [ms]
time step continuity errors : sum local = 3.02549e-09, global = 2.6692e-22, cumulative = 4.97944e-23
[INFO] ContinuityError: 68.158 [ms]
[INFO] CorrectBoundary: 2.05 [ms]
[INFO] PISOStep: 219662 [ms]
[INFO] TimeStep: 443741 [ms]
ExecutionTime = 444.46 s  ClockTime = 447 s

Time = 0.00025

Courant Number mean: 0.0108529 max: 0.437705
[INFO] MatrixAssemblyU: 498.888 [ms]
DILUPBiCGStab:  Solving for Ux, Initial residual = 0.108168, Final residual = 0.0134444, No Iterations 5
DILUPBiCGStab:  Solving for Uy, Initial residual = 0.484635, Final residual = 0.0521708, No Iterations 5
DILUPBiCGStab:  Solving for Uz, Initial residual = 0.990101, Final residual = 0.118545, No Iterations 5
[INFO] MomentumPredictor: 4165.71 [ms]
[INFO] MatrixAssemblyPI: 573.459 [ms]
[INFO] AdjustPhi: 30.508 [ms]
[INFO] ConstrainPressure: 0.005 [ms]
[INFO] MatrixAssemblyPII: 168.17 [ms]
nonePCG:  Solving for p, Initial residual = 0.906405, Final residual = 9.89036e-05, No Iterations 3187
[INFO] SolveP: 215270 [ms]
time step continuity errors : sum local = 6.95829e-09, global = 4.32913e-23, cumulative = 9.30857e-23
[INFO] ContinuityError: 69.519 [ms]
[INFO] CorrectBoundary: 3.17 [ms]
[INFO] PISOStep: 216302 [ms]
[INFO] MatrixAssemblyPI: 558.432 [ms]
[INFO] AdjustPhi: 30.809 [ms]
[INFO] ConstrainPressure: 0.004 [ms]
[INFO] MatrixAssemblyPII: 169.052 [ms]
nonePCG:  Solving for p, Initial residual = 0.857636, Final residual = 9.83591e-05, No Iterations 3183
[INFO] SolveP: 214880 [ms]
time step continuity errors : sum local = 7.04848e-09, global = -5.73275e-23, cumulative = 3.57582e-23
[INFO] ContinuityError: 69.177 [ms]
[INFO] CorrectBoundary: 2.59 [ms]
[INFO] PISOStep: 215898 [ms]
[INFO] TimeStep: 436932 [ms]
ExecutionTime = 879.62 s  ClockTime = 884 s

Time = 0.000375

Courant Number mean: 0.0169458 max: 0.511447
[INFO] MatrixAssemblyU: 496.397 [ms]
DILUPBiCGStab:  Solving for Ux, Initial residual = 0.0536857, Final residual = 0.00543539, No Iterations 5
DILUPBiCGStab:  Solving for Uy, Initial residual = 0.261642, Final residual = 0.0262828, No Iterations 5
DILUPBiCGStab:  Solving for Uz, Initial residual = 0.870822, Final residual = 0.0864807, No Iterations 5
[INFO] MomentumPredictor: 4175.95 [ms]
[INFO] MatrixAssemblyPI: 572.744 [ms]
[INFO] AdjustPhi: 32.494 [ms]
[INFO] ConstrainPressure: 0.004 [ms]
[INFO] MatrixAssemblyPII: 168.415 [ms]
nonePCG:  Solving for p, Initial residual = 0.940885, Final residual = 9.80164e-05, No Iterations 1538
[INFO] SolveP: 104275 [ms]
time step continuity errors : sum local = 8.90299e-09, global = 7.35028e-22, cumulative = 7.70786e-22
[INFO] ContinuityError: 69.603 [ms]
[INFO] CorrectBoundary: 3.078 [ms]
[INFO] PISOStep: 105308 [ms]
[INFO] MatrixAssemblyPI: 560.138 [ms]
[INFO] AdjustPhi: 30.377 [ms]
[INFO] ConstrainPressure: 0.005 [ms]
[INFO] MatrixAssemblyPII: 168.105 [ms]
nonePCG:  Solving for p, Initial residual = 0.908695, Final residual = 9.86137e-05, No Iterations 1535
[INFO] SolveP: 103769 [ms]
time step continuity errors : sum local = 8.72776e-09, global = 1.82545e-23, cumulative = 7.8904e-22
[INFO] ContinuityError: 69.031 [ms]
[INFO] CorrectBoundary: 2.685 [ms]
[INFO] PISOStep: 104787 [ms]
[INFO] TimeStep: 214837 [ms]
ExecutionTime = 1093.58 s  ClockTime = 1098 s

Time = 0.0005

Courant Number mean: 0.020555 max: 0.47757
[INFO] MatrixAssemblyU: 493.601 [ms]
DILUPBiCGStab:  Solving for Ux, Initial residual = 0.0416134, Final residual = 0.0050364, No Iterations 5
DILUPBiCGStab:  Solving for Uy, Initial residual = 0.213835, Final residual = 0.0241572, No Iterations 5
DILUPBiCGStab:  Solving for Uz, Initial residual = 0.783483, Final residual = 0.0640367, No Iterations 5
[INFO] MomentumPredictor: 4166.02 [ms]
[INFO] MatrixAssemblyPI: 573.937 [ms]
[INFO] AdjustPhi: 30.686 [ms]
[INFO] ConstrainPressure: 0.005 [ms]
[INFO] MatrixAssemblyPII: 169.189 [ms]
nonePCG:  Solving for p, Initial residual = 0.937525, Final residual = 9.94374e-05, No Iterations 1534
[INFO] SolveP: 103931 [ms]
time step continuity errors : sum local = 1.12222e-08, global = 4.15607e-22, cumulative = 1.20465e-21
[INFO] ContinuityError: 68.731 [ms]
[INFO] CorrectBoundary: 2.518 [ms]
[INFO] PISOStep: 104963 [ms]
[INFO] MatrixAssemblyPI: 559.365 [ms]
[INFO] AdjustPhi: 30.062 [ms]
[INFO] ConstrainPressure: 0.005 [ms]
[INFO] MatrixAssemblyPII: 168.688 [ms]
nonePCG:  Solving for p, Initial residual = 0.879922, Final residual = 9.98675e-05, No Iterations 1513
[INFO] SolveP: 102060 [ms]
time step continuity errors : sum local = 1.11252e-08, global = 7.27195e-22, cumulative = 1.93184e-21
[INFO] ContinuityError: 69.35 [ms]
[INFO] CorrectBoundary: 3.245 [ms]
[INFO] PISOStep: 103077 [ms]
[INFO] TimeStep: 212765 [ms]
ExecutionTime = 1305.5 s  ClockTime = 1311 s

Time = 0.000625

Courant Number mean: 0.0236275 max: 0.556008
[INFO] MatrixAssemblyU: 493.404 [ms]
DILUPBiCGStab:  Solving for Ux, Initial residual = 0.0376216, Final residual = 0.00457247, No Iterations 5
DILUPBiCGStab:  Solving for Uy, Initial residual = 0.184633, Final residual = 0.0200852, No Iterations 5
DILUPBiCGStab:  Solving for Uz, Initial residual = 0.756268, Final residual = 0.0552886, No Iterations 5
[INFO] MomentumPredictor: 4168.5 [ms]
[INFO] MatrixAssemblyPI: 573.46 [ms]
[INFO] AdjustPhi: 31.54 [ms]
[INFO] ConstrainPressure: 0.005 [ms]
[INFO] MatrixAssemblyPII: 168.167 [ms]
nonePCG:  Solving for p, Initial residual = 0.954074, Final residual = 9.82818e-05, No Iterations 2903
[INFO] SolveP: 196802 [ms]
time step continuity errors : sum local = 1.22226e-08, global = 1.23053e-21, cumulative = 3.16238e-21
[INFO] ContinuityError: 68.392 [ms]
[INFO] CorrectBoundary: 1.957 [ms]
[INFO] PISOStep: 197833 [ms]
[INFO] MatrixAssemblyPI: 559.13 [ms]
[INFO] AdjustPhi: 32.511 [ms]
[INFO] ConstrainPressure: 0.005 [ms]
[INFO] MatrixAssemblyPII: 168.15 [ms]
nonePCG:  Solving for p, Initial residual = 0.915129, Final residual = 9.94017e-05, No Iterations 2883
[INFO] SolveP: 194733 [ms]
time step continuity errors : sum local = 1.22889e-08, global = 1.73579e-22, cumulative = 3.33596e-21
[INFO] ContinuityError: 68.846 [ms]
[INFO] CorrectBoundary: 2.374 [ms]
[INFO] PISOStep: 195754 [ms]
[INFO] TimeStep: 398317 [ms]
ExecutionTime = 1702.19 s  ClockTime = 1710 s

Time = 0.00075

Courant Number mean: 0.0259663 max: 0.483361
[INFO] MatrixAssemblyU: 494.701 [ms]
DILUPBiCGStab:  Solving for Ux, Initial residual = 0.0354277, Final residual = 0.00433825, No Iterations 5
DILUPBiCGStab:  Solving for Uy, Initial residual = 0.171334, Final residual = 0.0173034, No Iterations 5
DILUPBiCGStab:  Solving for Uz, Initial residual = 0.70352, Final residual = 0.0482884, No Iterations 5
[INFO] MomentumPredictor: 4167.59 [ms]
[INFO] MatrixAssemblyPI: 573.589 [ms]
[INFO] AdjustPhi: 32.999 [ms]
[INFO] ConstrainPressure: 0.004 [ms]
[INFO] MatrixAssemblyPII: 168.652 [ms]
nonePCG:  Solving for p, Initial residual = 0.951066, Final residual = 9.88079e-05, No Iterations 3090
[INFO] SolveP: 210139 [ms]
time step continuity errors : sum local = 1.4193e-08, global = 9.76131e-22, cumulative = 4.31209e-21
[INFO] ContinuityError: 67.625 [ms]
[INFO] CorrectBoundary: 2.759 [ms]
[INFO] PISOStep: 211173 [ms]
[INFO] MatrixAssemblyPI: 558.774 [ms]
[INFO] AdjustPhi: 29.454 [ms]
[INFO] ConstrainPressure: 0.005 [ms]
[INFO] MatrixAssemblyPII: 169.032 [ms]
nonePCG:  Solving for p, Initial residual = 0.891077, Final residual = 9.98483e-05, No Iterations 3085
[INFO] SolveP: 208376 [ms]
time step continuity errors : sum local = 1.45689e-08, global = 2.20095e-22, cumulative = 4.53218e-21
[INFO] ContinuityError: 68.779 [ms]
[INFO] CorrectBoundary: 2.159 [ms]
[INFO] PISOStep: 209391 [ms]
[INFO] TimeStep: 425293 [ms]
ExecutionTime = 2125.76 s  ClockTime = 2135 s

Time = 0.000875

Courant Number mean: 0.0281641 max: 0.61229
[INFO] MatrixAssemblyU: 492.749 [ms]
DILUPBiCGStab:  Solving for Ux, Initial residual = 0.0350338, Final residual = 0.00413859, No Iterations 5
DILUPBiCGStab:  Solving for Uy, Initial residual = 0.176151, Final residual = 0.0164161, No Iterations 5
DILUPBiCGStab:  Solving for Uz, Initial residual = 0.69394, Final residual = 0.0419438, No Iterations 5
[INFO] MomentumPredictor: 4185.56 [ms]
[INFO] MatrixAssemblyPI: 572.728 [ms]
[INFO] AdjustPhi: 31.74 [ms]
[INFO] ConstrainPressure: 0.005 [ms]
[INFO] MatrixAssemblyPII: 168.233 [ms]
nonePCG:  Solving for p, Initial residual = 0.962093, Final residual = 9.9768e-05, No Iterations 1508
[INFO] SolveP: 101845 [ms]
time step continuity errors : sum local = 1.79613e-08, global = 1.29278e-21, cumulative = 5.82496e-21
[INFO] ContinuityError: 70.325 [ms]
[INFO] CorrectBoundary: 2.001 [ms]
[INFO] PISOStep: 102878 [ms]
[INFO] MatrixAssemblyPI: 558.536 [ms]
[INFO] AdjustPhi: 31.014 [ms]
[INFO] ConstrainPressure: 0.005 [ms]
[INFO] MatrixAssemblyPII: 168.726 [ms]
nonePCG:  Solving for p, Initial residual = 0.917656, Final residual = 9.84214e-05, No Iterations 1488
[INFO] SolveP: 100387 [ms]
time step continuity errors : sum local = 1.65344e-08, global = 5.0732e-22, cumulative = 6.33228e-21
[INFO] ContinuityError: 68.374 [ms]
[INFO] CorrectBoundary: 2.307 [ms]
[INFO] PISOStep: 101403 [ms]
[INFO] TimeStep: 209026 [ms]
ExecutionTime = 2333.94 s  ClockTime = 2344 s

Time = 0.001

Courant Number mean: 0.029912 max: 0.491017
[INFO] MatrixAssemblyU: 494.559 [ms]
DILUPBiCGStab:  Solving for Ux, Initial residual = 0.0360549, Final residual = 0.00397558, No Iterations 5
DILUPBiCGStab:  Solving for Uy, Initial residual = 0.170262, Final residual = 0.0143751, No Iterations 5
DILUPBiCGStab:  Solving for Uz, Initial residual = 0.68685, Final residual = 0.0426074, No Iterations 5
[INFO] MomentumPredictor: 4167.7 [ms]
[INFO] MatrixAssemblyPI: 572.887 [ms]
[INFO] AdjustPhi: 31.676 [ms]
[INFO] ConstrainPressure: 0.005 [ms]
[INFO] MatrixAssemblyPII: 168.041 [ms]
nonePCG:  Solving for p, Initial residual = 0.960002, Final residual = 9.97035e-05, No Iterations 3074
[INFO] SolveP: 208235 [ms]
time step continuity errors : sum local = 1.86763e-08, global = 4.2287e-22, cumulative = 6.75515e-21
[INFO] ContinuityError: 69.351 [ms]
[INFO] CorrectBoundary: 1.436 [ms]
[INFO] PISOStep: 209267 [ms]
[INFO] MatrixAssemblyPI: 559.916 [ms]
[INFO] AdjustPhi: 30.322 [ms]
[INFO] ConstrainPressure: 0.005 [ms]
[INFO] MatrixAssemblyPII: 169.44 [ms]
nonePCG:  Solving for p, Initial residual = 0.897977, Final residual = 9.80906e-05, No Iterations 3072
[INFO] SolveP: 207640 [ms]
time step continuity errors : sum local = 1.8647e-08, global = 1.65307e-22, cumulative = 6.92046e-21
[INFO] ContinuityError: 67.261 [ms]
[INFO] CorrectBoundary: 2.056 [ms]
[INFO] PISOStep: 208657 [ms]
[INFO] TimeStep: 422653 [ms]
ExecutionTime = 2754.86 s  ClockTime = 2766 s

Time = 0.001125

Courant Number mean: 0.0317164 max: 0.695862
[INFO] MatrixAssemblyU: 492.31 [ms]
DILUPBiCGStab:  Solving for Ux, Initial residual = 0.0374477, Final residual = 0.0037976, No Iterations 5
DILUPBiCGStab:  Solving for Uy, Initial residual = 0.1868, Final residual = 0.0146459, No Iterations 5
DILUPBiCGStab:  Solving for Uz, Initial residual = 0.693493, Final residual = 0.0379871, No Iterations 5
[INFO] MomentumPredictor: 4170.05 [ms]
[INFO] MatrixAssemblyPI: 573.75 [ms]
[INFO] AdjustPhi: 30.988 [ms]
[INFO] ConstrainPressure: 0.005 [ms]
[INFO] MatrixAssemblyPII: 168.105 [ms]
nonePCG:  Solving for p, Initial residual = 0.967959, Final residual = 9.82435e-05, No Iterations 3071
[INFO] SolveP: 208415 [ms]
time step continuity errors : sum local = 2.11178e-08, global = 5.62108e-22, cumulative = 7.48257e-21
[INFO] ContinuityError: 70.205 [ms]
[INFO] CorrectBoundary: 1.571 [ms]
[INFO] PISOStep: 209448 [ms]
[INFO] MatrixAssemblyPI: 557.586 [ms]
[INFO] AdjustPhi: 32.64 [ms]
[INFO] ConstrainPressure: 0.005 [ms]
[INFO] MatrixAssemblyPII: 168.703 [ms]
nonePCG:  Solving for p, Initial residual = 0.918618, Final residual = 9.8401e-05, No Iterations 3069
[INFO] SolveP: 207667 [ms]
time step continuity errors : sum local = 2.11262e-08, global = 6.7801e-22, cumulative = 8.16058e-21
[INFO] ContinuityError: 70.755 [ms]
[INFO] CorrectBoundary: 1.503 [ms]
[INFO] PISOStep: 208687 [ms]
[INFO] TimeStep: 422865 [ms]
ExecutionTime = 3176.01 s  ClockTime = 3189 s

Time = 0.00125

Courant Number mean: 0.0331299 max: 0.507088
[INFO] MatrixAssemblyU: 496.168 [ms]
DILUPBiCGStab:  Solving for Ux, Initial residual = 0.0407556, Final residual = 0.00385494, No Iterations 5
DILUPBiCGStab:  Solving for Uy, Initial residual = 0.185498, Final residual = 0.0129867, No Iterations 5
DILUPBiCGStab:  Solving for Uz, Initial residual = 0.692721, Final residual = 0.0367175, No Iterations 5
[INFO] MomentumPredictor: 4176.68 [ms]
[INFO] MatrixAssemblyPI: 574.901 [ms]
[INFO] AdjustPhi: 30.324 [ms]
[INFO] ConstrainPressure: 0.005 [ms]
[INFO] MatrixAssemblyPII: 168.335 [ms]
nonePCG:  Solving for p, Initial residual = 0.967317, Final residual = 9.9802e-05, No Iterations 3071
[INFO] SolveP: 210188 [ms]
time step continuity errors : sum local = 2.49834e-08, global = 1.15584e-21, cumulative = 9.31641e-21
[INFO] ContinuityError: 70.718 [ms]
[INFO] CorrectBoundary: 2.878 [ms]
[INFO] PISOStep: 211222 [ms]
[INFO] MatrixAssemblyPI: 556.71 [ms]
[INFO] AdjustPhi: 32.639 [ms]
[INFO] ConstrainPressure: 0.005 [ms]
[INFO] MatrixAssemblyPII: 168.49 [ms]
nonePCG:  Solving for p, Initial residual = 0.903708, Final residual = 9.8152e-05, No Iterations 3069
[INFO] SolveP: 207070 [ms]
time step continuity errors : sum local = 2.49011e-08, global = 1.38647e-21, cumulative = 1.07029e-20
[INFO] ContinuityError: 68.043 [ms]
[INFO] CorrectBoundary: 2.219 [ms]
[INFO] PISOStep: 208085 [ms]
[INFO] TimeStep: 424047 [ms]
ExecutionTime = 3598.28 s  ClockTime = 3613 s

Time = 0.001375

Courant Number mean: 0.0347286 max: 0.825396
[INFO] MatrixAssemblyU: 492.398 [ms]
DILUPBiCGStab:  Solving for Ux, Initial residual = 0.0434957, Final residual = 0.00368913, No Iterations 5
DILUPBiCGStab:  Solving for Uy, Initial residual = 0.209131, Final residual = 0.0140037, No Iterations 5
DILUPBiCGStab:  Solving for Uz, Initial residual = 0.706206, Final residual = 0.0360577, No Iterations 5
[INFO] MomentumPredictor: 4173.82 [ms]
[INFO] MatrixAssemblyPI: 573.056 [ms]
[INFO] AdjustPhi: 31.884 [ms]
[INFO] ConstrainPressure: 0.005 [ms]
[INFO] MatrixAssemblyPII: 168.51 [ms]
nonePCG:  Solving for p, Initial residual = 0.972965, Final residual = 9.93152e-05, No Iterations 3070
[INFO] SolveP: 208859 [ms]
time step continuity errors : sum local = 2.88849e-08, global = -8.19297e-23, cumulative = 1.0621e-20
[INFO] ContinuityError: 68.814 [ms]
[INFO] CorrectBoundary: 2.692 [ms]
[INFO] PISOStep: 209891 [ms]
[INFO] MatrixAssemblyPI: 558.053 [ms]
[INFO] AdjustPhi: 31.505 [ms]
[INFO] ConstrainPressure: 0.005 [ms]
[INFO] MatrixAssemblyPII: 168.896 [ms]
nonePCG:  Solving for p, Initial residual = 0.919482, Final residual = 9.86096e-05, No Iterations 3068
[INFO] SolveP: 207412 [ms]
time step continuity errors : sum local = 2.87009e-08, global = 7.32998e-22, cumulative = 1.1354e-20
[INFO] ContinuityError: 70.569 [ms]
[INFO] CorrectBoundary: 2.658 [ms]
[INFO] PISOStep: 208432 [ms]
[INFO] TimeStep: 423057 [ms]
ExecutionTime = 4019.55 s  ClockTime = 4036 s

Time = 0.0015

Courant Number mean: 0.0359286 max: 0.597091
[INFO] MatrixAssemblyU: 495.718 [ms]
DILUPBiCGStab:  Solving for Ux, Initial residual = 0.0489256, Final residual = 0.00389276, No Iterations 5
DILUPBiCGStab:  Solving for Uy, Initial residual = 0.213438, Final residual = 0.0128714, No Iterations 5
DILUPBiCGStab:  Solving for Uz, Initial residual = 0.709925, Final residual = 0.035623, No Iterations 5
[INFO] MomentumPredictor: 4168.23 [ms]
[INFO] MatrixAssemblyPI: 572.904 [ms]
[INFO] AdjustPhi: 31.145 [ms]
[INFO] ConstrainPressure: 0.005 [ms]
[INFO] MatrixAssemblyPII: 167.957 [ms]
nonePCG:  Solving for p, Initial residual = 0.973207, Final residual = 9.92237e-05, No Iterations 3071
[INFO] SolveP: 209043 [ms]
time step continuity errors : sum local = 3.38515e-08, global = 1.11623e-21, cumulative = 1.24702e-20
[INFO] ContinuityError: 71.012 [ms]
[INFO] CorrectBoundary: 2.363 [ms]
[INFO] PISOStep: 210076 [ms]
[INFO] MatrixAssemblyPI: 559.683 [ms]
[INFO] AdjustPhi: 29.648 [ms]
[INFO] ConstrainPressure: 0.004 [ms]
[INFO] MatrixAssemblyPII: 168.616 [ms]
nonePCG:  Solving for p, Initial residual = 0.908615, Final residual = 9.87803e-05, No Iterations 3068
[INFO] SolveP: 207189 [ms]
time step continuity errors : sum local = 3.41109e-08, global = 7.47022e-22, cumulative = 1.32172e-20
[INFO] ContinuityError: 72.121 [ms]
[INFO] CorrectBoundary: 1.86 [ms]
[INFO] PISOStep: 208207 [ms]
[INFO] TimeStep: 423014 [ms]
ExecutionTime = 4440.86 s  ClockTime = 4459 s

Time = 0.001625

Courant Number mean: 0.0374234 max: 1.14728
[INFO] MatrixAssemblyU: 497.992 [ms]
DILUPBiCGStab:  Solving for Ux, Initial residual = 0.0535445, Final residual = 0.00383371, No Iterations 5
DILUPBiCGStab:  Solving for Uy, Initial residual = 0.241804, Final residual = 0.0141427, No Iterations 5
DILUPBiCGStab:  Solving for Uz, Initial residual = 0.721972, Final residual = 0.0353864, No Iterations 5
[INFO] MomentumPredictor: 4162.79 [ms]
[INFO] MatrixAssemblyPI: 573.283 [ms]
[INFO] AdjustPhi: 31.012 [ms]
[INFO] ConstrainPressure: 0.005 [ms]
[INFO] MatrixAssemblyPII: 168.563 [ms]
nonePCG:  Solving for p, Initial residual = 0.976815, Final residual = 9.95627e-05, No Iterations 3071
[INFO] SolveP: 208636 [ms]
time step continuity errors : sum local = 3.98301e-08, global = 8.54503e-22, cumulative = 1.40717e-20
[INFO] ContinuityError: 70.754 [ms]
[INFO] CorrectBoundary: 2.247 [ms]
[INFO] PISOStep: 209670 [ms]
[INFO] MatrixAssemblyPI: 557.939 [ms]
[INFO] AdjustPhi: 31.786 [ms]
[INFO] ConstrainPressure: 0.005 [ms]
[INFO] MatrixAssemblyPII: 169.657 [ms]
nonePCG:  Solving for p, Initial residual = 0.920278, Final residual = 9.94598e-05, No Iterations 3068
[INFO] SolveP: 207542 [ms]
time step continuity errors : sum local = 3.98892e-08, global = 2.34066e-23, cumulative = 1.40951e-20
[INFO] ContinuityError: 67.541 [ms]
[INFO] CorrectBoundary: 1.659 [ms]
[INFO] PISOStep: 208558 [ms]
[INFO] TimeStep: 422956 [ms]
ExecutionTime = 4862.1 s  ClockTime = 4882 s

Time = 0.00175

Courant Number mean: 0.0384859 max: 1.02052
[INFO] MatrixAssemblyU: 501.33 [ms]
DILUPBiCGStab:  Solving for Ux, Initial residual = 0.0614901, Final residual = 0.00413234, No Iterations 5
DILUPBiCGStab:  Solving for Uy, Initial residual = 0.252186, Final residual = 0.0135418, No Iterations 5
DILUPBiCGStab:  Solving for Uz, Initial residual = 0.726336, Final residual = 0.0351482, No Iterations 5
[INFO] MomentumPredictor: 4162.5 [ms]
[INFO] MatrixAssemblyPI: 573.747 [ms]
[INFO] AdjustPhi: 31.038 [ms]
[INFO] ConstrainPressure: 0.004 [ms]
[INFO] MatrixAssemblyPII: 167.847 [ms]
nonePCG:  Solving for p, Initial residual = 0.977495, Final residual = 9.91882e-05, No Iterations 3070
[INFO] SolveP: 207655 [ms]
time step continuity errors : sum local = 4.67854e-08, global = 5.16846e-22, cumulative = 1.4612e-20
[INFO] ContinuityError: 69.694 [ms]
[INFO] CorrectBoundary: 2.356 [ms]
[INFO] PISOStep: 208687 [ms]
[INFO] MatrixAssemblyPI: 560.723 [ms]
[INFO] AdjustPhi: 30.289 [ms]
[INFO] ConstrainPressure: 0.005 [ms]
[INFO] MatrixAssemblyPII: 168.459 [ms]
nonePCG:  Solving for p, Initial residual = 0.91271, Final residual = 9.95189e-05, No Iterations 3067
[INFO] SolveP: 207114 [ms]
time step continuity errors : sum local = 4.74626e-08, global = 1.47636e-21, cumulative = 1.60883e-20
[INFO] ContinuityError: 68.65 [ms]
[INFO] CorrectBoundary: 2.246 [ms]
[INFO] PISOStep: 208132 [ms]
[INFO] TimeStep: 421551 [ms]
ExecutionTime = 5281.9 s  ClockTime = 5304 s

Time = 0.001875

Courant Number mean: 0.0399501 max: 1.682
[INFO] MatrixAssemblyU: 500.718 [ms]
DILUPBiCGStab:  Solving for Ux, Initial residual = 0.0684308, Final residual = 0.00422032, No Iterations 5
DILUPBiCGStab:  Solving for Uy, Initial residual = 0.284208, Final residual = 0.0149107, No Iterations 5
DILUPBiCGStab:  Solving for Uz, Initial residual = 0.734947, Final residual = 0.0349471, No Iterations 5
[INFO] MomentumPredictor: 4170.78 [ms]
[INFO] MatrixAssemblyPI: 572.705 [ms]
[INFO] AdjustPhi: 32.01 [ms]
[INFO] ConstrainPressure: 0.004 [ms]
[INFO] MatrixAssemblyPII: 168.424 [ms]
nonePCG:  Solving for p, Initial residual = 0.979628, Final residual = 9.83703e-05, No Iterations 3075
[INFO] SolveP: 207587 [ms]
time step continuity errors : sum local = 5.47346e-08, global = 4.88554e-24, cumulative = 1.60932e-20
[INFO] ContinuityError: 70.623 [ms]
[INFO] CorrectBoundary: 2.069 [ms]
[INFO] PISOStep: 208621 [ms]
[INFO] MatrixAssemblyPI: 560.075 [ms]
[INFO] AdjustPhi: 33.345 [ms]
[INFO] ConstrainPressure: 0.005 [ms]
[INFO] MatrixAssemblyPII: 168.192 [ms]
nonePCG:  Solving for p, Initial residual = 0.920772, Final residual = 9.86595e-05, No Iterations 3071
[INFO] SolveP: 207561 [ms]
time step continuity errors : sum local = 5.5116e-08, global = 5.94795e-23, cumulative = 1.61527e-20
[INFO] ContinuityError: 68.276 [ms]
[INFO] CorrectBoundary: 2.656 [ms]
[INFO] PISOStep: 208581 [ms]
[INFO] TimeStep: 421942 [ms]
ExecutionTime = 5702.08 s  ClockTime = 5726 s

Time = 0.002

Courant Number mean: 0.0409454 max: 1.71602
[INFO] MatrixAssemblyU: 501.75 [ms]
DILUPBiCGStab:  Solving for Ux, Initial residual = 0.0798038, Final residual = 0.00463889, No Iterations 5
DILUPBiCGStab:  Solving for Uy, Initial residual = 0.300894, Final residual = 0.0147705, No Iterations 5
DILUPBiCGStab:  Solving for Uz, Initial residual = 0.738524, Final residual = 0.0347317, No Iterations 5
[INFO] MomentumPredictor: 4166.81 [ms]
[INFO] MatrixAssemblyPI: 572.959 [ms]
[INFO] AdjustPhi: 31.866 [ms]
[INFO] ConstrainPressure: 0.005 [ms]
[INFO] MatrixAssemblyPII: 168.032 [ms]
nonePCG:  Solving for p, Initial residual = 0.980752, Final residual = 9.96109e-05, No Iterations 3076
[INFO] SolveP: 208164 [ms]
time step continuity errors : sum local = 6.56191e-08, global = -9.0385e-22, cumulative = 1.52488e-20
[INFO] ContinuityError: 70.85 [ms]
[INFO] CorrectBoundary: 0.891 [ms]
[INFO] PISOStep: 209197 [ms]
[INFO] MatrixAssemblyPI: 558.874 [ms]
[INFO] AdjustPhi: 31.93 [ms]
[INFO] ConstrainPressure: 0.004 [ms]
[INFO] MatrixAssemblyPII: 167.602 [ms]
nonePCG:  Solving for p, Initial residual = 0.915753, Final residual = 9.96728e-05, No Iterations 3072
[INFO] SolveP: 207908 [ms]
time step continuity errors : sum local = 6.63339e-08, global = 5.70393e-22, cumulative = 1.58192e-20
[INFO] ContinuityError: 69.961 [ms]
[INFO] CorrectBoundary: 1.007 [ms]
[INFO] PISOStep: 208930 [ms]
[INFO] TimeStep: 422862 [ms]
ExecutionTime = 6123.2 s  ClockTime = 6149 s

Time = 0.002125

Courant Number mean: 0.0424471 max: 2.54802
[INFO] MatrixAssemblyU: 501.575 [ms]
DILUPBiCGStab:  Solving for Ux, Initial residual = 0.0897442, Final residual = 0.00489829, No Iterations 5
DILUPBiCGStab:  Solving for Uy, Initial residual = 0.335898, Final residual = 0.0162109, No Iterations 5
DILUPBiCGStab:  Solving for Uz, Initial residual = 0.744164, Final residual = 0.034572, No Iterations 5
[INFO] MomentumPredictor: 4171.61 [ms]
[INFO] MatrixAssemblyPI: 573.639 [ms]
[INFO] AdjustPhi: 32.425 [ms]
[INFO] ConstrainPressure: 0.005 [ms]
[INFO] MatrixAssemblyPII: 168.001 [ms]
nonePCG:  Solving for p, Initial residual = 0.981831, Final residual = 9.9799e-05, No Iterations 3078
[INFO] SolveP: 207982 [ms]
time step continuity errors : sum local = 7.8131e-08, global = 2.50328e-21, cumulative = 1.83225e-20
[INFO] ContinuityError: 69.047 [ms]
[INFO] CorrectBoundary: 2.574 [ms]
[INFO] PISOStep: 209017 [ms]
[INFO] MatrixAssemblyPI: 558.486 [ms]
[INFO] AdjustPhi: 31.723 [ms]
[INFO] ConstrainPressure: 0.005 [ms]
[INFO] MatrixAssemblyPII: 168.195 [ms]
nonePCG:  Solving for p, Initial residual = 0.920792, Final residual = 9.86077e-05, No Iterations 3075
[INFO] SolveP: 208144 [ms]
time step continuity errors : sum local = 7.76166e-08, global = 7.95024e-22, cumulative = 1.91175e-20
[INFO] ContinuityError: 68.874 [ms]
[INFO] CorrectBoundary: 0.926 [ms]
[INFO] PISOStep: 209161 [ms]
[INFO] TimeStep: 422920 [ms]
ExecutionTime = 6544.41 s  ClockTime = 6572 s

Time = 0.00225

Courant Number mean: 0.0434548 max: 2.85596
[INFO] MatrixAssemblyU: 499.628 [ms]
DILUPBiCGStab:  Solving for Ux, Initial residual = 0.106042, Final residual = 0.00550589, No Iterations 5
DILUPBiCGStab:  Solving for Uy, Initial residual = 0.358822, Final residual = 0.0164687, No Iterations 5
DILUPBiCGStab:  Solving for Uz, Initial residual = 0.746625, Final residual = 0.034344, No Iterations 5
[INFO] MomentumPredictor: 4165.99 [ms]
[INFO] MatrixAssemblyPI: 572.511 [ms]
[INFO] AdjustPhi: 32.114 [ms]
[INFO] ConstrainPressure: 0.005 [ms]
[INFO] MatrixAssemblyPII: 168.043 [ms]
nonePCG:  Solving for p, Initial residual = 0.983038, Final residual = 9.95789e-05, No Iterations 2953
[INFO] SolveP: 200346 [ms]
time step continuity errors : sum local = 9.29803e-08, global = 5.46249e-22, cumulative = 1.96638e-20
[INFO] ContinuityError: 68.178 [ms]
[INFO] CorrectBoundary: 1.799 [ms]
[INFO] PISOStep: 201376 [ms]
[INFO] MatrixAssemblyPI: 557.054 [ms]
[INFO] AdjustPhi: 31.168 [ms]
[INFO] ConstrainPressure: 0.005 [ms]
[INFO] MatrixAssemblyPII: 168.194 [ms]
nonePCG:  Solving for p, Initial residual = 0.917802, Final residual = 9.91838e-05, No Iterations 2949
[INFO] SolveP: 199176 [ms]
time step continuity errors : sum local = 9.35123e-08, global = 8.4419e-22, cumulative = 2.0508e-20
[INFO] ContinuityError: 68.608 [ms]
[INFO] CorrectBoundary: 1.202 [ms]
[INFO] PISOStep: 200192 [ms]
[INFO] TimeStep: 406302 [ms]
ExecutionTime = 6949.08 s  ClockTime = 6978 s

Time = 0.002375

Courant Number mean: 0.0450767 max: 3.95929
[INFO] MatrixAssemblyU: 500.458 [ms]
DILUPBiCGStab:  Solving for Ux, Initial residual = 0.119813, Final residual = 0.00594837, No Iterations 5
DILUPBiCGStab:  Solving for Uy, Initial residual = 0.395116, Final residual = 0.0179524, No Iterations 5
DILUPBiCGStab:  Solving for Uz, Initial residual = 0.750106, Final residual = 0.0341557, No Iterations 5
[INFO] MomentumPredictor: 4164.31 [ms]
[INFO] MatrixAssemblyPI: 572.695 [ms]
[INFO] AdjustPhi: 32.064 [ms]
[INFO] ConstrainPressure: 0.005 [ms]
[INFO] MatrixAssemblyPII: 168.31 [ms]
nonePCG:  Solving for p, Initial residual = 0.983468, Final residual = 9.93015e-05, No Iterations 3082
[INFO] SolveP: 210275 [ms]
time step continuity errors : sum local = 1.11003e-07, global = 1.59801e-22, cumulative = 2.06678e-20
[INFO] ContinuityError: 68.848 [ms]
[INFO] CorrectBoundary: 1.974 [ms]
[INFO] PISOStep: 211307 [ms]
[INFO] MatrixAssemblyPI: 557.649 [ms]
[INFO] AdjustPhi: 31.822 [ms]
[INFO] ConstrainPressure: 0.005 [ms]
[INFO] MatrixAssemblyPII: 168.221 [ms]
nonePCG:  Solving for p, Initial residual = 0.920997, Final residual = 9.92292e-05, No Iterations 3079
[INFO] SolveP: 208133 [ms]
time step continuity errors : sum local = 1.11646e-07, global = 1.01141e-21, cumulative = 2.16792e-20
[INFO] ContinuityError: 70.335 [ms]
[INFO] CorrectBoundary: 1.761 [ms]
[INFO] PISOStep: 209152 [ms]
[INFO] TimeStep: 425191 [ms]
ExecutionTime = 7372.56 s  ClockTime = 7403 s

Time = 0.0025

Courant Number mean: 0.0462042 max: 4.70355
[INFO] MatrixAssemblyU: 499.031 [ms]
DILUPBiCGStab:  Solving for Ux, Initial residual = 0.142722, Final residual = 0.00681751, No Iterations 5
DILUPBiCGStab:  Solving for Uy, Initial residual = 0.422603, Final residual = 0.0185128, No Iterations 5
DILUPBiCGStab:  Solving for Uz, Initial residual = 0.751354, Final residual = 0.0338917, No Iterations 5
[INFO] MomentumPredictor: 4170.06 [ms]
[INFO] MatrixAssemblyPI: 573.624 [ms]
[INFO] AdjustPhi: 30.625 [ms]
[INFO] ConstrainPressure: 0.006 [ms]
[INFO] MatrixAssemblyPII: 168.282 [ms]
nonePCG:  Solving for p, Initial residual = 0.984347, Final residual = 9.94466e-05, No Iterations 3083
[INFO] SolveP: 209174 [ms]
time step continuity errors : sum local = 1.33485e-07, global = 6.40434e-21, cumulative = 2.80835e-20
[INFO] ContinuityError: 67.474 [ms]
[INFO] CorrectBoundary: 1.635 [ms]
[INFO] PISOStep: 210204 [ms]
[INFO] MatrixAssemblyPI: 558.246 [ms]
[INFO] AdjustPhi: 30.93 [ms]
[INFO] ConstrainPressure: 0.005 [ms]
[INFO] MatrixAssemblyPII: 168.604 [ms]
nonePCG:  Solving for p, Initial residual = 0.919121, Final residual = 9.95435e-05, No Iterations 3080
[INFO] SolveP: 208218 [ms]
time step continuity errors : sum local = 1.34883e-07, global = 2.09173e-22, cumulative = 2.82927e-20
[INFO] ContinuityError: 69.079 [ms]
[INFO] CorrectBoundary: 2.097 [ms]
[INFO] PISOStep: 209235 [ms]
[INFO] TimeStep: 424177 [ms]
ExecutionTime = 7794.98 s  ClockTime = 7827 s

End

Finalising parallel run
