/*---------------------------------------------------------------------------*\
| =========                 |                                                 |
| \\      /  F ield         | OpenFOAM: The Open Source CFD Toolbox           |
|  \\    /   O peration     | Version:  2306                                  |
|   \\  /    A nd           | Website:  www.openfoam.com                      |
|    \\/     M anipulation  |                                                 |
\*---------------------------------------------------------------------------*/
Build  : c423ebec-20231012 OPENFOAM=2306 version=v2306
Arch   : "LSB;label=32;scalar=64"
Exec   : decomposePar -force
Date   : Feb 04 2024
Time   : 20:38:41
Host   : hkn1129.localdomain
PID    : 1053608
--> FOAM Warning : 
    From Foam::fileName Foam::cwd_L()
    in file POSIX.C at line 552
    PWD is not the cwd() - reverting to physical description
I/O    : uncollated
--> FOAM Warning : 
    From Foam::fileName Foam::cwd_L()
    in file POSIX.C at line 552
    PWD is not the cwd() - reverting to physical description
Case   : /hkfs/work/workspace/scratch/eq4036-l3d_multi/workspace/5ed7352d00d9d8939b66b182a89f5fff/case
nProcs : 1
trapFpe: Floating point exception trapping enabled (FOAM_SIGFPE).
fileModificationChecking : Monitoring run-time modified files using timeStampMaster (fileModificationSkew 5, maxFileModificationPolls 20)
allowSystemOperations : Allowing user-supplied system call operations

// * * * * * * * * * * * * * * * * * * * * * * * * * * * * * * * * * * * * * //
Create time

--> FOAM Warning : 
    From void* Foam::dlLibraryTable::openLibrary(const Foam::fileName&, bool)
    in file db/dynamicLibrary/dlLibraryTable/dlLibraryTable.C at line 188
    Could not load "libpetscFoam.so"
libpetscFoam.so: cannot open shared object file: No such file or directory


Decomposing mesh

Create mesh

Calculating distribution of cells
Decomposition method simple [76] (region region0)

Finished decomposition in 97.42 s

Calculating original mesh data

Distributing cells to processors

Distributing faces to processors

Distributing points to processors

Constructing processor meshes

Processor 0
    Number of cells = 1663978
    Number of points = 1800023
    Number of faces shared with processor 1 = 125498
    Number of faces shared with processor 38 = 6531
    Number of faces shared with processor 39 = 1
    Number of processor patches = 3
    Number of processor faces = 132030
    Number of boundary faces = 138530

Processor 1
    Number of cells = 1654092
    Number of points = 1790221
    Number of faces shared with processor 0 = 125498
    Number of faces shared with processor 2 = 125498
    Number of faces shared with processor 39 = 6615
    Number of faces shared with processor 40 = 1
    Number of processor patches = 4
    Number of processor faces = 257612
    Number of boundary faces = 13116

Processor 2
    Number of cells = 1647305
    Number of points = 1783408
    Number of faces shared with processor 1 = 125498
    Number of faces shared with processor 3 = 125499
    Number of faces shared with processor 40 = 6588
    Number of faces shared with processor 41 = 1
    Number of processor patches = 4
    Number of processor faces = 257586
    Number of boundary faces = 13090

Processor 3
    Number of cells = 1643515
    Number of points = 1779543
    Number of faces shared with processor 2 = 125499
    Number of faces shared with processor 4 = 125358
    Number of faces shared with processor 41 = 6583
    Number of faces shared with processor 42 = 1
    Number of processor patches = 4
    Number of processor faces = 257441
    Number of boundary faces = 13085

Processor 4
    Number of cells = 1638335
    Number of points = 1774208
    Number of faces shared with processor 3 = 125358
    Number of faces shared with processor 5 = 125148
    Number of faces shared with processor 42 = 6604
    Number of faces shared with processor 43 = 1
    Number of processor patches = 4
    Number of processor faces = 257111
    Number of boundary faces = 13105

Processor 5
    Number of cells = 1627775
    Number of points = 1763438
    Number of faces shared with processor 4 = 125148
    Number of faces shared with processor 6 = 125000
    Number of faces shared with processor 43 = 6574
    Number of processor patches = 3
    Number of processor faces = 256722
    Number of boundary faces = 13074

Processor 6
    Number of cells = 1651318
    Number of points = 1787290
    Number of faces shared with processor 5 = 125000
    Number of faces shared with processor 7 = 125457
    Number of faces shared with processor 44 = 6500
    Number of processor patches = 3
    Number of processor faces = 256957
    Number of boundary faces = 13457

Processor 7
    Number of cells = 1658057
    Number of points = 1794184
    Number of faces shared with processor 6 = 125457
    Number of faces shared with processor 8 = 125499
    Number of faces shared with processor 45 = 6612
    Number of faces shared with processor 46 = 1
    Number of processor patches = 4
    Number of processor faces = 257569
    Number of boundary faces = 13155

Processor 8
    Number of cells = 1649000
    Number of points = 1785110
    Number of faces shared with processor 7 = 125499
    Number of faces shared with processor 9 = 125499
    Number of faces shared with processor 46 = 6595
    Number of faces shared with processor 47 = 1
    Number of processor patches = 4
    Number of processor faces = 257594
    Number of boundary faces = 13096

Processor 9
    Number of cells = 1644740
    Number of points = 1780796
    Number of faces shared with processor 8 = 125499
    Number of faces shared with processor 10 = 125417
    Number of faces shared with processor 47 = 6582
    Number of faces shared with processor 48 = 1
    Number of processor patches = 4
    Number of processor faces = 257499
    Number of boundary faces = 13083

Processor 10
    Number of cells = 1640474
    Number of points = 1776406
    Number of faces shared with processor 9 = 125417
    Number of faces shared with processor 11 = 125225
    Number of faces shared with processor 48 = 6595
    Number of faces shared with processor 49 = 1
    Number of processor patches = 4
    Number of processor faces = 257238
    Number of boundary faces = 13096

Processor 11
    Number of cells = 1631411
    Number of points = 1767151
    Number of faces shared with processor 10 = 125225
    Number of faces shared with processor 12 = 125000
    Number of faces shared with processor 49 = 6612
    Number of processor patches = 3
    Number of processor faces = 256837
    Number of boundary faces = 13113

Processor 12
    Number of cells = 1638162
    Number of points = 1774000
    Number of faces shared with processor 11 = 125000
    Number of faces shared with processor 13 = 125323
    Number of faces shared with processor 50 = 6500
    Number of processor patches = 3
    Number of processor faces = 256823
    Number of boundary faces = 13323

Processor 13
    Number of cells = 1661699
    Number of points = 1797787
    Number of faces shared with processor 12 = 125323
    Number of faces shared with processor 14 = 125498
    Number of faces shared with processor 51 = 6574
    Number of faces shared with processor 52 = 1
    Number of processor patches = 4
    Number of processor faces = 257396
    Number of boundary faces = 13250

Processor 14
    Number of cells = 1651139
    Number of points = 1787257
    Number of faces shared with processor 13 = 125498
    Number of faces shared with processor 15 = 125498
    Number of faces shared with processor 52 = 6604
    Number of faces shared with processor 53 = 1
    Number of processor patches = 4
    Number of processor faces = 257601
    Number of boundary faces = 13105

Processor 15
    Number of cells = 1645959
    Number of points = 1782044
    Number of faces shared with processor 14 = 125498
    Number of faces shared with processor 16 = 125473
    Number of faces shared with processor 53 = 6583
    Number of faces shared with processor 54 = 1
    Number of processor patches = 4
    Number of processor faces = 257555
    Number of boundary faces = 13085

Processor 16
    Number of cells = 1642163
    Number of points = 1778151
    Number of faces shared with processor 15 = 125473
    Number of faces shared with processor 17 = 125294
    Number of faces shared with processor 54 = 6588
    Number of faces shared with processor 55 = 1
    Number of processor patches = 4
    Number of processor faces = 257356
    Number of boundary faces = 13090

Processor 17
    Number of cells = 1635382
    Number of points = 1771191
    Number of faces shared with processor 16 = 125294
    Number of faces shared with processor 18 = 125062
    Number of faces shared with processor 55 = 6615
    Number of faces shared with processor 56 = 1
    Number of processor patches = 4
    Number of processor faces = 256972
    Number of boundary faces = 13116

Processor 18
    Number of cells = 1625502
    Number of points = 1761086
    Number of faces shared with processor 17 = 125062
    Number of faces shared with processor 19 = 125006
    Number of faces shared with processor 56 = 6531
    Number of processor patches = 3
    Number of processor faces = 256599
    Number of boundary faces = 13037

Processor 19
    Number of cells = 1663978
    Number of points = 1800023
    Number of faces shared with processor 18 = 125006
    Number of faces shared with processor 20 = 125498
    Number of faces shared with processor 57 = 6531
    Number of faces shared with processor 58 = 1
    Number of processor patches = 4
    Number of processor faces = 257036
    Number of boundary faces = 13524

Processor 20
    Number of cells = 1654092
    Number of points = 1790221
    Number of faces shared with processor 19 = 125498
    Number of faces shared with processor 21 = 125498
    Number of faces shared with processor 58 = 6615
    Number of faces shared with processor 59 = 1
    Number of processor patches = 4
    Number of processor faces = 257612
    Number of boundary faces = 13116

Processor 21
    Number of cells = 1647299
    Number of points = 1783402
    Number of faces shared with processor 20 = 125498
    Number of faces shared with processor 22 = 125499
    Number of faces shared with processor 59 = 6588
    Number of faces shared with processor 60 = 1
    Number of processor patches = 4
    Number of processor faces = 257586
    Number of boundary faces = 13090

Processor 22
    Number of cells = 1643515
    Number of points = 1779543
    Number of faces shared with processor 21 = 125499
    Number of faces shared with processor 23 = 125358
    Number of faces shared with processor 60 = 6583
    Number of faces shared with processor 61 = 1
    Number of processor patches = 4
    Number of processor faces = 257441
    Number of boundary faces = 13085

Processor 23
    Number of cells = 1638335
    Number of points = 1774208
    Number of faces shared with processor 22 = 125358
    Number of faces shared with processor 24 = 125148
    Number of faces shared with processor 61 = 6604
    Number of faces shared with processor 62 = 1
    Number of processor patches = 4
    Number of processor faces = 257111
    Number of boundary faces = 13105

Processor 24
    Number of cells = 1627775
    Number of points = 1763438
    Number of faces shared with processor 23 = 125148
    Number of faces shared with processor 25 = 125000
    Number of faces shared with processor 62 = 6574
    Number of processor patches = 3
    Number of processor faces = 256722
    Number of boundary faces = 13074

Processor 25
    Number of cells = 1651324
    Number of points = 1787296
    Number of faces shared with processor 24 = 125000
    Number of faces shared with processor 26 = 125457
    Number of faces shared with processor 63 = 6500
    Number of processor patches = 3
    Number of processor faces = 256957
    Number of boundary faces = 13457

Processor 26
    Number of cells = 1658051
    Number of points = 1794178
    Number of faces shared with processor 25 = 125457
    Number of faces shared with processor 27 = 125499
    Number of faces shared with processor 64 = 6612
    Number of faces shared with processor 65 = 1
    Number of processor patches = 4
    Number of processor faces = 257569
    Number of boundary faces = 13155

Processor 27
    Number of cells = 1649000
    Number of points = 1785110
    Number of faces shared with processor 26 = 125499
    Number of faces shared with processor 28 = 125499
    Number of faces shared with processor 65 = 6595
    Number of faces shared with processor 66 = 1
    Number of processor patches = 4
    Number of processor faces = 257594
    Number of boundary faces = 13096

Processor 28
    Number of cells = 1644743
    Number of points = 1780799
    Number of faces shared with processor 27 = 125499
    Number of faces shared with processor 29 = 125417
    Number of faces shared with processor 66 = 6582
    Number of faces shared with processor 67 = 1
    Number of processor patches = 4
    Number of processor faces = 257499
    Number of boundary faces = 13083

Processor 29
    Number of cells = 1640473
    Number of points = 1776405
    Number of faces shared with processor 28 = 125417
    Number of faces shared with processor 30 = 125225
    Number of faces shared with processor 67 = 6595
    Number of faces shared with processor 68 = 1
    Number of processor patches = 4
    Number of processor faces = 257238
    Number of boundary faces = 13096

Processor 30
    Number of cells = 1631409
    Number of points = 1767149
    Number of faces shared with processor 29 = 125225
    Number of faces shared with processor 31 = 125000
    Number of faces shared with processor 68 = 6612
    Number of processor patches = 3
    Number of processor faces = 256837
    Number of boundary faces = 13113

Processor 31
    Number of cells = 1638162
    Number of points = 1774000
    Number of faces shared with processor 30 = 125000
    Number of faces shared with processor 32 = 125323
    Number of faces shared with processor 69 = 6500
    Number of processor patches = 3
    Number of processor faces = 256823
    Number of boundary faces = 13323

Processor 32
    Number of cells = 1661698
    Number of points = 1797786
    Number of faces shared with processor 31 = 125323
    Number of faces shared with processor 33 = 125498
    Number of faces shared with processor 70 = 6574
    Number of faces shared with processor 71 = 1
    Number of processor patches = 4
    Number of processor faces = 257396
    Number of boundary faces = 13250

Processor 33
    Number of cells = 1651138
    Number of points = 1787256
    Number of faces shared with processor 32 = 125498
    Number of faces shared with processor 34 = 125498
    Number of faces shared with processor 71 = 6604
    Number of faces shared with processor 72 = 1
    Number of processor patches = 4
    Number of processor faces = 257601
    Number of boundary faces = 13105

Processor 34
    Number of cells = 1645958
    Number of points = 1782043
    Number of faces shared with processor 33 = 125498
    Number of faces shared with processor 35 = 125473
    Number of faces shared with processor 72 = 6583
    Number of faces shared with processor 73 = 1
    Number of processor patches = 4
    Number of processor faces = 257555
    Number of boundary faces = 13085

Processor 35
    Number of cells = 1642166
    Number of points = 1778154
    Number of faces shared with processor 34 = 125473
    Number of faces shared with processor 36 = 125294
    Number of faces shared with processor 73 = 6588
    Number of faces shared with processor 74 = 1
    Number of processor patches = 4
    Number of processor faces = 257356
    Number of boundary faces = 13090

Processor 36
    Number of cells = 1635382
    Number of points = 1771191
    Number of faces shared with processor 35 = 125294
    Number of faces shared with processor 37 = 125062
    Number of faces shared with processor 74 = 6615
    Number of faces shared with processor 75 = 1
    Number of processor patches = 4
    Number of processor faces = 256972
    Number of boundary faces = 13116

Processor 37
    Number of cells = 1625496
    Number of points = 1761073
    Number of faces shared with processor 36 = 125062
    Number of faces shared with processor 75 = 6531
    Number of processor patches = 2
    Number of processor faces = 131593
    Number of boundary faces = 138031

Processor 38
    Number of cells = 1625496
    Number of points = 1761073
    Number of faces shared with processor 0 = 6531
    Number of faces shared with processor 39 = 125062
    Number of processor patches = 2
    Number of processor faces = 131593
    Number of boundary faces = 138031

Processor 39
    Number of cells = 1635382
    Number of points = 1771191
    Number of faces shared with processor 0 = 1
    Number of faces shared with processor 1 = 6615
    Number of faces shared with processor 38 = 125062
    Number of faces shared with processor 40 = 125294
    Number of processor patches = 4
    Number of processor faces = 256972
    Number of boundary faces = 13116

Processor 40
    Number of cells = 1642169
    Number of points = 1778157
    Number of faces shared with processor 1 = 1
    Number of faces shared with processor 2 = 6588
    Number of faces shared with processor 39 = 125294
    Number of faces shared with processor 41 = 125473
    Number of processor patches = 4
    Number of processor faces = 257356
    Number of boundary faces = 13090

Processor 41
    Number of cells = 1645959
    Number of points = 1782044
    Number of faces shared with processor 2 = 1
    Number of faces shared with processor 3 = 6583
    Number of faces shared with processor 40 = 125473
    Number of faces shared with processor 42 = 125498
    Number of processor patches = 4
    Number of processor faces = 257555
    Number of boundary faces = 13085

Processor 42
    Number of cells = 1651139
    Number of points = 1787257
    Number of faces shared with processor 3 = 1
    Number of faces shared with processor 4 = 6604
    Number of faces shared with processor 41 = 125498
    Number of faces shared with processor 43 = 125498
    Number of processor patches = 4
    Number of processor faces = 257601
    Number of boundary faces = 13105

Processor 43
    Number of cells = 1661699
    Number of points = 1797787
    Number of faces shared with processor 4 = 1
    Number of faces shared with processor 5 = 6574
    Number of faces shared with processor 42 = 125498
    Number of faces shared with processor 44 = 125323
    Number of processor patches = 4
    Number of processor faces = 257396
    Number of boundary faces = 13250

Processor 44
    Number of cells = 1638156
    Number of points = 1773994
    Number of faces shared with processor 6 = 6500
    Number of faces shared with processor 43 = 125323
    Number of faces shared with processor 45 = 125000
    Number of processor patches = 3
    Number of processor faces = 256823
    Number of boundary faces = 13323

Processor 45
    Number of cells = 1631417
    Number of points = 1767157
    Number of faces shared with processor 7 = 6612
    Number of faces shared with processor 44 = 125000
    Number of faces shared with processor 46 = 125225
    Number of processor patches = 3
    Number of processor faces = 256837
    Number of boundary faces = 13113

Processor 46
    Number of cells = 1640474
    Number of points = 1776406
    Number of faces shared with processor 7 = 1
    Number of faces shared with processor 8 = 6595
    Number of faces shared with processor 45 = 125225
    Number of faces shared with processor 47 = 125417
    Number of processor patches = 4
    Number of processor faces = 257238
    Number of boundary faces = 13096

Processor 47
    Number of cells = 1644734
    Number of points = 1780790
    Number of faces shared with processor 8 = 1
    Number of faces shared with processor 9 = 6582
    Number of faces shared with processor 46 = 125417
    Number of faces shared with processor 48 = 125499
    Number of processor patches = 4
    Number of processor faces = 257499
    Number of boundary faces = 13083

Processor 48
    Number of cells = 1649000
    Number of points = 1785110
    Number of faces shared with processor 9 = 1
    Number of faces shared with processor 10 = 6595
    Number of faces shared with processor 47 = 125499
    Number of faces shared with processor 49 = 125499
    Number of processor patches = 4
    Number of processor faces = 257594
    Number of boundary faces = 13096

Processor 49
    Number of cells = 1658063
    Number of points = 1794190
    Number of faces shared with processor 10 = 1
    Number of faces shared with processor 11 = 6612
    Number of faces shared with processor 48 = 125499
    Number of faces shared with processor 50 = 125457
    Number of processor patches = 4
    Number of processor faces = 257569
    Number of boundary faces = 13155

Processor 50
    Number of cells = 1651312
    Number of points = 1787284
    Number of faces shared with processor 12 = 6500
    Number of faces shared with processor 49 = 125457
    Number of faces shared with processor 51 = 125000
    Number of processor patches = 3
    Number of processor faces = 256957
    Number of boundary faces = 13457

Processor 51
    Number of cells = 1627775
    Number of points = 1763438
    Number of faces shared with processor 13 = 6574
    Number of faces shared with processor 50 = 125000
    Number of faces shared with processor 52 = 125148
    Number of processor patches = 3
    Number of processor faces = 256722
    Number of boundary faces = 13074

Processor 52
    Number of cells = 1638335
    Number of points = 1774208
    Number of faces shared with processor 13 = 1
    Number of faces shared with processor 14 = 6604
    Number of faces shared with processor 51 = 125148
    Number of faces shared with processor 53 = 125358
    Number of processor patches = 4
    Number of processor faces = 257111
    Number of boundary faces = 13105

Processor 53
    Number of cells = 1643515
    Number of points = 1779543
    Number of faces shared with processor 14 = 1
    Number of faces shared with processor 15 = 6583
    Number of faces shared with processor 52 = 125358
    Number of faces shared with processor 54 = 125499
    Number of processor patches = 4
    Number of processor faces = 257441
    Number of boundary faces = 13085

Processor 54
    Number of cells = 1647311
    Number of points = 1783414
    Number of faces shared with processor 15 = 1
    Number of faces shared with processor 16 = 6588
    Number of faces shared with processor 53 = 125499
    Number of faces shared with processor 55 = 125498
    Number of processor patches = 4
    Number of processor faces = 257586
    Number of boundary faces = 13090

Processor 55
    Number of cells = 1654092
    Number of points = 1790221
    Number of faces shared with processor 16 = 1
    Number of faces shared with processor 17 = 6615
    Number of faces shared with processor 54 = 125498
    Number of faces shared with processor 56 = 125498
    Number of processor patches = 4
    Number of processor faces = 257612
    Number of boundary faces = 13116

Processor 56
    Number of cells = 1663972
    Number of points = 1800017
    Number of faces shared with processor 17 = 1
    Number of faces shared with processor 18 = 6531
    Number of faces shared with processor 55 = 125498
    Number of faces shared with processor 57 = 125000
    Number of processor patches = 4
    Number of processor faces = 257030
    Number of boundary faces = 13530

Processor 57
    Number of cells = 1625496
    Number of points = 1761073
    Number of faces shared with processor 19 = 6531
    Number of faces shared with processor 56 = 125000
    Number of faces shared with processor 58 = 125062
    Number of processor patches = 3
    Number of processor faces = 256593
    Number of boundary faces = 13031

Processor 58
    Number of cells = 1635382
    Number of points = 1771191
    Number of faces shared with processor 19 = 1
    Number of faces shared with processor 20 = 6615
    Number of faces shared with processor 57 = 125062
    Number of faces shared with processor 59 = 125294
    Number of processor patches = 4
    Number of processor faces = 256972
    Number of boundary faces = 13116

Processor 59
    Number of cells = 1642175
    Number of points = 1778163
    Number of faces shared with processor 20 = 1
    Number of faces shared with processor 21 = 6588
    Number of faces shared with processor 58 = 125294
    Number of faces shared with processor 60 = 125473
    Number of processor patches = 4
    Number of processor faces = 257356
    Number of boundary faces = 13090

Processor 60
    Number of cells = 1645959
    Number of points = 1782044
    Number of faces shared with processor 21 = 1
    Number of faces shared with processor 22 = 6583
    Number of faces shared with processor 59 = 125473
    Number of faces shared with processor 61 = 125498
    Number of processor patches = 4
    Number of processor faces = 257555
    Number of boundary faces = 13085

Processor 61
    Number of cells = 1651139
    Number of points = 1787257
    Number of faces shared with processor 22 = 1
    Number of faces shared with processor 23 = 6604
    Number of faces shared with processor 60 = 125498
    Number of faces shared with processor 62 = 125498
    Number of processor patches = 4
    Number of processor faces = 257601
    Number of boundary faces = 13105

Processor 62
    Number of cells = 1661699
    Number of points = 1797787
    Number of faces shared with processor 23 = 1
    Number of faces shared with processor 24 = 6574
    Number of faces shared with processor 61 = 125498
    Number of faces shared with processor 63 = 125323
    Number of processor patches = 4
    Number of processor faces = 257396
    Number of boundary faces = 13250

Processor 63
    Number of cells = 1638150
    Number of points = 1773988
    Number of faces shared with processor 25 = 6500
    Number of faces shared with processor 62 = 125323
    Number of faces shared with processor 64 = 125000
    Number of processor patches = 3
    Number of processor faces = 256823
    Number of boundary faces = 13323

Processor 64
    Number of cells = 1631422
    Number of points = 1767162
    Number of faces shared with processor 26 = 6612
    Number of faces shared with processor 63 = 125000
    Number of faces shared with processor 65 = 125225
    Number of processor patches = 3
    Number of processor faces = 256837
    Number of boundary faces = 13113

Processor 65
    Number of cells = 1640473
    Number of points = 1776405
    Number of faces shared with processor 26 = 1
    Number of faces shared with processor 27 = 6595
    Number of faces shared with processor 64 = 125225
    Number of faces shared with processor 66 = 125417
    Number of processor patches = 4
    Number of processor faces = 257238
    Number of boundary faces = 13096

Processor 66
    Number of cells = 1644730
    Number of points = 1780786
    Number of faces shared with processor 27 = 1
    Number of faces shared with processor 28 = 6582
    Number of faces shared with processor 65 = 125417
    Number of faces shared with processor 67 = 125499
    Number of processor patches = 4
    Number of processor faces = 257499
    Number of boundary faces = 13083

Processor 67
    Number of cells = 1649000
    Number of points = 1785110
    Number of faces shared with processor 28 = 1
    Number of faces shared with processor 29 = 6595
    Number of faces shared with processor 66 = 125499
    Number of faces shared with processor 68 = 125499
    Number of processor patches = 4
    Number of processor faces = 257594
    Number of boundary faces = 13096

Processor 68
    Number of cells = 1658064
    Number of points = 1794191
    Number of faces shared with processor 29 = 1
    Number of faces shared with processor 30 = 6612
    Number of faces shared with processor 67 = 125499
    Number of faces shared with processor 69 = 125457
    Number of processor patches = 4
    Number of processor faces = 257569
    Number of boundary faces = 13155

Processor 69
    Number of cells = 1651311
    Number of points = 1787283
    Number of faces shared with processor 31 = 6500
    Number of faces shared with processor 68 = 125457
    Number of faces shared with processor 70 = 125000
    Number of processor patches = 3
    Number of processor faces = 256957
    Number of boundary faces = 13457

Processor 70
    Number of cells = 1627775
    Number of points = 1763438
    Number of faces shared with processor 32 = 6574
    Number of faces shared with processor 69 = 125000
    Number of faces shared with processor 71 = 125148
    Number of processor patches = 3
    Number of processor faces = 256722
    Number of boundary faces = 13074

Processor 71
    Number of cells = 1638335
    Number of points = 1774208
    Number of faces shared with processor 32 = 1
    Number of faces shared with processor 33 = 6604
    Number of faces shared with processor 70 = 125148
    Number of faces shared with processor 72 = 125358
    Number of processor patches = 4
    Number of processor faces = 257111
    Number of boundary faces = 13105

Processor 72
    Number of cells = 1643515
    Number of points = 1779543
    Number of faces shared with processor 33 = 1
    Number of faces shared with processor 34 = 6583
    Number of faces shared with processor 71 = 125358
    Number of faces shared with processor 73 = 125499
    Number of processor patches = 4
    Number of processor faces = 257441
    Number of boundary faces = 13085

Processor 73
    Number of cells = 1647307
    Number of points = 1783410
    Number of faces shared with processor 34 = 1
    Number of faces shared with processor 35 = 6588
    Number of faces shared with processor 72 = 125499
    Number of faces shared with processor 74 = 125498
    Number of processor patches = 4
    Number of processor faces = 257586
    Number of boundary faces = 13090

Processor 74
    Number of cells = 1654091
    Number of points = 1790220
    Number of faces shared with processor 35 = 1
    Number of faces shared with processor 36 = 6615
    Number of faces shared with processor 73 = 125498
    Number of faces shared with processor 75 = 125498
    Number of processor patches = 4
    Number of processor faces = 257612
    Number of boundary faces = 13116

Processor 75
    Number of cells = 1663977
    Number of points = 1800022
    Number of faces shared with processor 36 = 1
    Number of faces shared with processor 37 = 6531
    Number of faces shared with processor 74 = 125498
    Number of processor patches = 3
    Number of processor faces = 132030
    Number of boundary faces = 138530

Number of processor faces = 9524990
Max number of cells = 1663978 (1.16986% above average 1.64474e+06)
Max number of processor patches = 4 (8.57143% above average 3.68421)
Max number of faces between processors = 257612 (2.77445% above average 250658)

Time = 0

Processor 0: field transfer
--> FOAM Warning : 
    From void* Foam::dlLibraryTable::openLibrary(const Foam::fileName&, bool)
    in file db/dynamicLibrary/dlLibraryTable/dlLibraryTable.C at line 188
    Could not load "libpetscFoam.so"
libpetscFoam.so: cannot open shared object file: No such file or directory
Processor 1: field transfer
--> FOAM Warning : 
    From void* Foam::dlLibraryTable::openLibrary(const Foam::fileName&, bool)
    in file db/dynamicLibrary/dlLibraryTable/dlLibraryTable.C at line 188
    Could not load "libpetscFoam.so"
libpetscFoam.so: cannot open shared object file: No such file or directory
Processor 2: field transfer
--> FOAM Warning : 
    From void* Foam::dlLibraryTable::openLibrary(const Foam::fileName&, bool)
    in file db/dynamicLibrary/dlLibraryTable/dlLibraryTable.C at line 188
    Could not load "libpetscFoam.so"
libpetscFoam.so: cannot open shared object file: No such file or directory
Processor 3: field transfer
--> FOAM Warning : 
    From void* Foam::dlLibraryTable::openLibrary(const Foam::fileName&, bool)
    in file db/dynamicLibrary/dlLibraryTable/dlLibraryTable.C at line 188
    Could not load "libpetscFoam.so"
libpetscFoam.so: cannot open shared object file: No such file or directory
Processor 4: field transfer
--> FOAM Warning : 
    From void* Foam::dlLibraryTable::openLibrary(const Foam::fileName&, bool)
    in file db/dynamicLibrary/dlLibraryTable/dlLibraryTable.C at line 188
    Could not load "libpetscFoam.so"
libpetscFoam.so: cannot open shared object file: No such file or directory
Processor 5: field transfer
--> FOAM Warning : 
    From void* Foam::dlLibraryTable::openLibrary(const Foam::fileName&, bool)
    in file db/dynamicLibrary/dlLibraryTable/dlLibraryTable.C at line 188
    Could not load "libpetscFoam.so"
libpetscFoam.so: cannot open shared object file: No such file or directory
Processor 6: field transfer
--> FOAM Warning : 
    From void* Foam::dlLibraryTable::openLibrary(const Foam::fileName&, bool)
    in file db/dynamicLibrary/dlLibraryTable/dlLibraryTable.C at line 188
    Could not load "libpetscFoam.so"
libpetscFoam.so: cannot open shared object file: No such file or directory
Processor 7: field transfer
--> FOAM Warning : 
    From void* Foam::dlLibraryTable::openLibrary(const Foam::fileName&, bool)
    in file db/dynamicLibrary/dlLibraryTable/dlLibraryTable.C at line 188
    Could not load "libpetscFoam.so"
libpetscFoam.so: cannot open shared object file: No such file or directory
Processor 8: field transfer
--> FOAM Warning : 
    From void* Foam::dlLibraryTable::openLibrary(const Foam::fileName&, bool)
    in file db/dynamicLibrary/dlLibraryTable/dlLibraryTable.C at line 188
    Could not load "libpetscFoam.so"
libpetscFoam.so: cannot open shared object file: No such file or directory
Processor 9: field transfer
--> FOAM Warning : 
    From void* Foam::dlLibraryTable::openLibrary(const Foam::fileName&, bool)
    in file db/dynamicLibrary/dlLibraryTable/dlLibraryTable.C at line 188
    Could not load "libpetscFoam.so"
libpetscFoam.so: cannot open shared object file: No such file or directory
Processor 10: field transfer
--> FOAM Warning : 
    From void* Foam::dlLibraryTable::openLibrary(const Foam::fileName&, bool)
    in file db/dynamicLibrary/dlLibraryTable/dlLibraryTable.C at line 188
    Could not load "libpetscFoam.so"
libpetscFoam.so: cannot open shared object file: No such file or directory
Processor 11: field transfer
--> FOAM Warning : 
    From void* Foam::dlLibraryTable::openLibrary(const Foam::fileName&, bool)
    in file db/dynamicLibrary/dlLibraryTable/dlLibraryTable.C at line 188
    Could not load "libpetscFoam.so"
libpetscFoam.so: cannot open shared object file: No such file or directory
Processor 12: field transfer
--> FOAM Warning : 
    From void* Foam::dlLibraryTable::openLibrary(const Foam::fileName&, bool)
    in file db/dynamicLibrary/dlLibraryTable/dlLibraryTable.C at line 188
    Could not load "libpetscFoam.so"
libpetscFoam.so: cannot open shared object file: No such file or directory
Processor 13: field transfer
--> FOAM Warning : 
    From void* Foam::dlLibraryTable::openLibrary(const Foam::fileName&, bool)
    in file db/dynamicLibrary/dlLibraryTable/dlLibraryTable.C at line 188
    Could not load "libpetscFoam.so"
libpetscFoam.so: cannot open shared object file: No such file or directory
Processor 14: field transfer
--> FOAM Warning : 
    From void* Foam::dlLibraryTable::openLibrary(const Foam::fileName&, bool)
    in file db/dynamicLibrary/dlLibraryTable/dlLibraryTable.C at line 188
    Could not load "libpetscFoam.so"
libpetscFoam.so: cannot open shared object file: No such file or directory
Processor 15: field transfer
--> FOAM Warning : 
    From void* Foam::dlLibraryTable::openLibrary(const Foam::fileName&, bool)
    in file db/dynamicLibrary/dlLibraryTable/dlLibraryTable.C at line 188
    Could not load "libpetscFoam.so"
libpetscFoam.so: cannot open shared object file: No such file or directory
Processor 16: field transfer
--> FOAM Warning : 
    From void* Foam::dlLibraryTable::openLibrary(const Foam::fileName&, bool)
    in file db/dynamicLibrary/dlLibraryTable/dlLibraryTable.C at line 188
    Could not load "libpetscFoam.so"
libpetscFoam.so: cannot open shared object file: No such file or directory
Processor 17: field transfer
--> FOAM Warning : 
    From void* Foam::dlLibraryTable::openLibrary(const Foam::fileName&, bool)
    in file db/dynamicLibrary/dlLibraryTable/dlLibraryTable.C at line 188
    Could not load "libpetscFoam.so"
libpetscFoam.so: cannot open shared object file: No such file or directory
Processor 18: field transfer
--> FOAM Warning : 
    From void* Foam::dlLibraryTable::openLibrary(const Foam::fileName&, bool)
    in file db/dynamicLibrary/dlLibraryTable/dlLibraryTable.C at line 188
    Could not load "libpetscFoam.so"
libpetscFoam.so: cannot open shared object file: No such file or directory
Processor 19: field transfer
--> FOAM Warning : 
    From void* Foam::dlLibraryTable::openLibrary(const Foam::fileName&, bool)
    in file db/dynamicLibrary/dlLibraryTable/dlLibraryTable.C at line 188
    Could not load "libpetscFoam.so"
libpetscFoam.so: cannot open shared object file: No such file or directory
Processor 20: field transfer
--> FOAM Warning : 
    From void* Foam::dlLibraryTable::openLibrary(const Foam::fileName&, bool)
    in file db/dynamicLibrary/dlLibraryTable/dlLibraryTable.C at line 188
    Could not load "libpetscFoam.so"
libpetscFoam.so: cannot open shared object file: No such file or directory
Processor 21: field transfer
--> FOAM Warning : 
    From void* Foam::dlLibraryTable::openLibrary(const Foam::fileName&, bool)
    in file db/dynamicLibrary/dlLibraryTable/dlLibraryTable.C at line 188
    Could not load "libpetscFoam.so"
libpetscFoam.so: cannot open shared object file: No such file or directory
Processor 22: field transfer
--> FOAM Warning : 
    From void* Foam::dlLibraryTable::openLibrary(const Foam::fileName&, bool)
    in file db/dynamicLibrary/dlLibraryTable/dlLibraryTable.C at line 188
    Could not load "libpetscFoam.so"
libpetscFoam.so: cannot open shared object file: No such file or directory
Processor 23: field transfer
--> FOAM Warning : 
    From void* Foam::dlLibraryTable::openLibrary(const Foam::fileName&, bool)
    in file db/dynamicLibrary/dlLibraryTable/dlLibraryTable.C at line 188
    Could not load "libpetscFoam.so"
libpetscFoam.so: cannot open shared object file: No such file or directory
Processor 24: field transfer
--> FOAM Warning : 
    From void* Foam::dlLibraryTable::openLibrary(const Foam::fileName&, bool)
    in file db/dynamicLibrary/dlLibraryTable/dlLibraryTable.C at line 188
    Could not load "libpetscFoam.so"
libpetscFoam.so: cannot open shared object file: No such file or directory
Processor 25: field transfer
--> FOAM Warning : 
    From void* Foam::dlLibraryTable::openLibrary(const Foam::fileName&, bool)
    in file db/dynamicLibrary/dlLibraryTable/dlLibraryTable.C at line 188
    Could not load "libpetscFoam.so"
libpetscFoam.so: cannot open shared object file: No such file or directory
Processor 26: field transfer
--> FOAM Warning : 
    From void* Foam::dlLibraryTable::openLibrary(const Foam::fileName&, bool)
    in file db/dynamicLibrary/dlLibraryTable/dlLibraryTable.C at line 188
    Could not load "libpetscFoam.so"
libpetscFoam.so: cannot open shared object file: No such file or directory
Processor 27: field transfer
--> FOAM Warning : 
    From void* Foam::dlLibraryTable::openLibrary(const Foam::fileName&, bool)
    in file db/dynamicLibrary/dlLibraryTable/dlLibraryTable.C at line 188
    Could not load "libpetscFoam.so"
libpetscFoam.so: cannot open shared object file: No such file or directory
Processor 28: field transfer
--> FOAM Warning : 
    From void* Foam::dlLibraryTable::openLibrary(const Foam::fileName&, bool)
    in file db/dynamicLibrary/dlLibraryTable/dlLibraryTable.C at line 188
    Could not load "libpetscFoam.so"
libpetscFoam.so: cannot open shared object file: No such file or directory
Processor 29: field transfer
--> FOAM Warning : 
    From void* Foam::dlLibraryTable::openLibrary(const Foam::fileName&, bool)
    in file db/dynamicLibrary/dlLibraryTable/dlLibraryTable.C at line 188
    Could not load "libpetscFoam.so"
libpetscFoam.so: cannot open shared object file: No such file or directory
Processor 30: field transfer
--> FOAM Warning : 
    From void* Foam::dlLibraryTable::openLibrary(const Foam::fileName&, bool)
    in file db/dynamicLibrary/dlLibraryTable/dlLibraryTable.C at line 188
    Could not load "libpetscFoam.so"
libpetscFoam.so: cannot open shared object file: No such file or directory
Processor 31: field transfer
--> FOAM Warning : 
    From void* Foam::dlLibraryTable::openLibrary(const Foam::fileName&, bool)
    in file db/dynamicLibrary/dlLibraryTable/dlLibraryTable.C at line 188
    Could not load "libpetscFoam.so"
libpetscFoam.so: cannot open shared object file: No such file or directory
Processor 32: field transfer
--> FOAM Warning : 
    From void* Foam::dlLibraryTable::openLibrary(const Foam::fileName&, bool)
    in file db/dynamicLibrary/dlLibraryTable/dlLibraryTable.C at line 188
    Could not load "libpetscFoam.so"
libpetscFoam.so: cannot open shared object file: No such file or directory
Processor 33: field transfer
--> FOAM Warning : 
    From void* Foam::dlLibraryTable::openLibrary(const Foam::fileName&, bool)
    in file db/dynamicLibrary/dlLibraryTable/dlLibraryTable.C at line 188
    Could not load "libpetscFoam.so"
libpetscFoam.so: cannot open shared object file: No such file or directory
Processor 34: field transfer
--> FOAM Warning : 
    From void* Foam::dlLibraryTable::openLibrary(const Foam::fileName&, bool)
    in file db/dynamicLibrary/dlLibraryTable/dlLibraryTable.C at line 188
    Could not load "libpetscFoam.so"
libpetscFoam.so: cannot open shared object file: No such file or directory
Processor 35: field transfer
--> FOAM Warning : 
    From void* Foam::dlLibraryTable::openLibrary(const Foam::fileName&, bool)
    in file db/dynamicLibrary/dlLibraryTable/dlLibraryTable.C at line 188
    Could not load "libpetscFoam.so"
libpetscFoam.so: cannot open shared object file: No such file or directory
Processor 36: field transfer
--> FOAM Warning : 
    From void* Foam::dlLibraryTable::openLibrary(const Foam::fileName&, bool)
    in file db/dynamicLibrary/dlLibraryTable/dlLibraryTable.C at line 188
    Could not load "libpetscFoam.so"
libpetscFoam.so: cannot open shared object file: No such file or directory
Processor 37: field transfer
--> FOAM Warning : 
    From void* Foam::dlLibraryTable::openLibrary(const Foam::fileName&, bool)
    in file db/dynamicLibrary/dlLibraryTable/dlLibraryTable.C at line 188
    Could not load "libpetscFoam.so"
libpetscFoam.so: cannot open shared object file: No such file or directory
Processor 38: field transfer
--> FOAM Warning : 
    From void* Foam::dlLibraryTable::openLibrary(const Foam::fileName&, bool)
    in file db/dynamicLibrary/dlLibraryTable/dlLibraryTable.C at line 188
    Could not load "libpetscFoam.so"
libpetscFoam.so: cannot open shared object file: No such file or directory
Processor 39: field transfer
--> FOAM Warning : 
    From void* Foam::dlLibraryTable::openLibrary(const Foam::fileName&, bool)
    in file db/dynamicLibrary/dlLibraryTable/dlLibraryTable.C at line 188
    Could not load "libpetscFoam.so"
libpetscFoam.so: cannot open shared object file: No such file or directory
Processor 40: field transfer
--> FOAM Warning : 
    From void* Foam::dlLibraryTable::openLibrary(const Foam::fileName&, bool)
    in file db/dynamicLibrary/dlLibraryTable/dlLibraryTable.C at line 188
    Could not load "libpetscFoam.so"
libpetscFoam.so: cannot open shared object file: No such file or directory
Processor 41: field transfer
--> FOAM Warning : 
    From void* Foam::dlLibraryTable::openLibrary(const Foam::fileName&, bool)
    in file db/dynamicLibrary/dlLibraryTable/dlLibraryTable.C at line 188
    Could not load "libpetscFoam.so"
libpetscFoam.so: cannot open shared object file: No such file or directory
Processor 42: field transfer
--> FOAM Warning : 
    From void* Foam::dlLibraryTable::openLibrary(const Foam::fileName&, bool)
    in file db/dynamicLibrary/dlLibraryTable/dlLibraryTable.C at line 188
    Could not load "libpetscFoam.so"
libpetscFoam.so: cannot open shared object file: No such file or directory
Processor 43: field transfer
--> FOAM Warning : 
    From void* Foam::dlLibraryTable::openLibrary(const Foam::fileName&, bool)
    in file db/dynamicLibrary/dlLibraryTable/dlLibraryTable.C at line 188
    Could not load "libpetscFoam.so"
libpetscFoam.so: cannot open shared object file: No such file or directory
Processor 44: field transfer
--> FOAM Warning : 
    From void* Foam::dlLibraryTable::openLibrary(const Foam::fileName&, bool)
    in file db/dynamicLibrary/dlLibraryTable/dlLibraryTable.C at line 188
    Could not load "libpetscFoam.so"
libpetscFoam.so: cannot open shared object file: No such file or directory
Processor 45: field transfer
--> FOAM Warning : 
    From void* Foam::dlLibraryTable::openLibrary(const Foam::fileName&, bool)
    in file db/dynamicLibrary/dlLibraryTable/dlLibraryTable.C at line 188
    Could not load "libpetscFoam.so"
libpetscFoam.so: cannot open shared object file: No such file or directory
Processor 46: field transfer
--> FOAM Warning : 
    From void* Foam::dlLibraryTable::openLibrary(const Foam::fileName&, bool)
    in file db/dynamicLibrary/dlLibraryTable/dlLibraryTable.C at line 188
    Could not load "libpetscFoam.so"
libpetscFoam.so: cannot open shared object file: No such file or directory
Processor 47: field transfer
--> FOAM Warning : 
    From void* Foam::dlLibraryTable::openLibrary(const Foam::fileName&, bool)
    in file db/dynamicLibrary/dlLibraryTable/dlLibraryTable.C at line 188
    Could not load "libpetscFoam.so"
libpetscFoam.so: cannot open shared object file: No such file or directory
Processor 48: field transfer
--> FOAM Warning : 
    From void* Foam::dlLibraryTable::openLibrary(const Foam::fileName&, bool)
    in file db/dynamicLibrary/dlLibraryTable/dlLibraryTable.C at line 188
    Could not load "libpetscFoam.so"
libpetscFoam.so: cannot open shared object file: No such file or directory
Processor 49: field transfer
--> FOAM Warning : 
    From void* Foam::dlLibraryTable::openLibrary(const Foam::fileName&, bool)
    in file db/dynamicLibrary/dlLibraryTable/dlLibraryTable.C at line 188
    Could not load "libpetscFoam.so"
libpetscFoam.so: cannot open shared object file: No such file or directory
Processor 50: field transfer
--> FOAM Warning : 
    From void* Foam::dlLibraryTable::openLibrary(const Foam::fileName&, bool)
    in file db/dynamicLibrary/dlLibraryTable/dlLibraryTable.C at line 188
    Could not load "libpetscFoam.so"
libpetscFoam.so: cannot open shared object file: No such file or directory
Processor 51: field transfer
--> FOAM Warning : 
    From void* Foam::dlLibraryTable::openLibrary(const Foam::fileName&, bool)
    in file db/dynamicLibrary/dlLibraryTable/dlLibraryTable.C at line 188
    Could not load "libpetscFoam.so"
libpetscFoam.so: cannot open shared object file: No such file or directory
Processor 52: field transfer
--> FOAM Warning : 
    From void* Foam::dlLibraryTable::openLibrary(const Foam::fileName&, bool)
    in file db/dynamicLibrary/dlLibraryTable/dlLibraryTable.C at line 188
    Could not load "libpetscFoam.so"
libpetscFoam.so: cannot open shared object file: No such file or directory
Processor 53: field transfer
--> FOAM Warning : 
    From void* Foam::dlLibraryTable::openLibrary(const Foam::fileName&, bool)
    in file db/dynamicLibrary/dlLibraryTable/dlLibraryTable.C at line 188
    Could not load "libpetscFoam.so"
libpetscFoam.so: cannot open shared object file: No such file or directory
Processor 54: field transfer
--> FOAM Warning : 
    From void* Foam::dlLibraryTable::openLibrary(const Foam::fileName&, bool)
    in file db/dynamicLibrary/dlLibraryTable/dlLibraryTable.C at line 188
    Could not load "libpetscFoam.so"
libpetscFoam.so: cannot open shared object file: No such file or directory
Processor 55: field transfer
--> FOAM Warning : 
    From void* Foam::dlLibraryTable::openLibrary(const Foam::fileName&, bool)
    in file db/dynamicLibrary/dlLibraryTable/dlLibraryTable.C at line 188
    Could not load "libpetscFoam.so"
libpetscFoam.so: cannot open shared object file: No such file or directory
Processor 56: field transfer
--> FOAM Warning : 
    From void* Foam::dlLibraryTable::openLibrary(const Foam::fileName&, bool)
    in file db/dynamicLibrary/dlLibraryTable/dlLibraryTable.C at line 188
    Could not load "libpetscFoam.so"
libpetscFoam.so: cannot open shared object file: No such file or directory
Processor 57: field transfer
--> FOAM Warning : 
    From void* Foam::dlLibraryTable::openLibrary(const Foam::fileName&, bool)
    in file db/dynamicLibrary/dlLibraryTable/dlLibraryTable.C at line 188
    Could not load "libpetscFoam.so"
libpetscFoam.so: cannot open shared object file: No such file or directory
Processor 58: field transfer
--> FOAM Warning : 
    From void* Foam::dlLibraryTable::openLibrary(const Foam::fileName&, bool)
    in file db/dynamicLibrary/dlLibraryTable/dlLibraryTable.C at line 188
    Could not load "libpetscFoam.so"
libpetscFoam.so: cannot open shared object file: No such file or directory
Processor 59: field transfer
--> FOAM Warning : 
    From void* Foam::dlLibraryTable::openLibrary(const Foam::fileName&, bool)
    in file db/dynamicLibrary/dlLibraryTable/dlLibraryTable.C at line 188
    Could not load "libpetscFoam.so"
libpetscFoam.so: cannot open shared object file: No such file or directory
Processor 60: field transfer
--> FOAM Warning : 
    From void* Foam::dlLibraryTable::openLibrary(const Foam::fileName&, bool)
    in file db/dynamicLibrary/dlLibraryTable/dlLibraryTable.C at line 188
    Could not load "libpetscFoam.so"
libpetscFoam.so: cannot open shared object file: No such file or directory
Processor 61: field transfer
--> FOAM Warning : 
    From void* Foam::dlLibraryTable::openLibrary(const Foam::fileName&, bool)
    in file db/dynamicLibrary/dlLibraryTable/dlLibraryTable.C at line 188
    Could not load "libpetscFoam.so"
libpetscFoam.so: cannot open shared object file: No such file or directory
Processor 62: field transfer
--> FOAM Warning : 
    From void* Foam::dlLibraryTable::openLibrary(const Foam::fileName&, bool)
    in file db/dynamicLibrary/dlLibraryTable/dlLibraryTable.C at line 188
    Could not load "libpetscFoam.so"
libpetscFoam.so: cannot open shared object file: No such file or directory
Processor 63: field transfer
--> FOAM Warning : 
    From void* Foam::dlLibraryTable::openLibrary(const Foam::fileName&, bool)
    in file db/dynamicLibrary/dlLibraryTable/dlLibraryTable.C at line 188
    Could not load "libpetscFoam.so"
libpetscFoam.so: cannot open shared object file: No such file or directory
Processor 64: field transfer
--> FOAM Warning : 
    From void* Foam::dlLibraryTable::openLibrary(const Foam::fileName&, bool)
    in file db/dynamicLibrary/dlLibraryTable/dlLibraryTable.C at line 188
    Could not load "libpetscFoam.so"
libpetscFoam.so: cannot open shared object file: No such file or directory
Processor 65: field transfer
--> FOAM Warning : 
    From void* Foam::dlLibraryTable::openLibrary(const Foam::fileName&, bool)
    in file db/dynamicLibrary/dlLibraryTable/dlLibraryTable.C at line 188
    Could not load "libpetscFoam.so"
libpetscFoam.so: cannot open shared object file: No such file or directory
Processor 66: field transfer
--> FOAM Warning : 
    From void* Foam::dlLibraryTable::openLibrary(const Foam::fileName&, bool)
    in file db/dynamicLibrary/dlLibraryTable/dlLibraryTable.C at line 188
    Could not load "libpetscFoam.so"
libpetscFoam.so: cannot open shared object file: No such file or directory
Processor 67: field transfer
--> FOAM Warning : 
    From void* Foam::dlLibraryTable::openLibrary(const Foam::fileName&, bool)
    in file db/dynamicLibrary/dlLibraryTable/dlLibraryTable.C at line 188
    Could not load "libpetscFoam.so"
libpetscFoam.so: cannot open shared object file: No such file or directory
Processor 68: field transfer
--> FOAM Warning : 
    From void* Foam::dlLibraryTable::openLibrary(const Foam::fileName&, bool)
    in file db/dynamicLibrary/dlLibraryTable/dlLibraryTable.C at line 188
    Could not load "libpetscFoam.so"
libpetscFoam.so: cannot open shared object file: No such file or directory
Processor 69: field transfer
--> FOAM Warning : 
    From void* Foam::dlLibraryTable::openLibrary(const Foam::fileName&, bool)
    in file db/dynamicLibrary/dlLibraryTable/dlLibraryTable.C at line 188
    Could not load "libpetscFoam.so"
libpetscFoam.so: cannot open shared object file: No such file or directory
Processor 70: field transfer
--> FOAM Warning : 
    From void* Foam::dlLibraryTable::openLibrary(const Foam::fileName&, bool)
    in file db/dynamicLibrary/dlLibraryTable/dlLibraryTable.C at line 188
    Could not load "libpetscFoam.so"
libpetscFoam.so: cannot open shared object file: No such file or directory
Processor 71: field transfer
--> FOAM Warning : 
    From void* Foam::dlLibraryTable::openLibrary(const Foam::fileName&, bool)
    in file db/dynamicLibrary/dlLibraryTable/dlLibraryTable.C at line 188
    Could not load "libpetscFoam.so"
libpetscFoam.so: cannot open shared object file: No such file or directory
Processor 72: field transfer
--> FOAM Warning : 
    From void* Foam::dlLibraryTable::openLibrary(const Foam::fileName&, bool)
    in file db/dynamicLibrary/dlLibraryTable/dlLibraryTable.C at line 188
    Could not load "libpetscFoam.so"
libpetscFoam.so: cannot open shared object file: No such file or directory
Processor 73: field transfer
--> FOAM Warning : 
    From void* Foam::dlLibraryTable::openLibrary(const Foam::fileName&, bool)
    in file db/dynamicLibrary/dlLibraryTable/dlLibraryTable.C at line 188
    Could not load "libpetscFoam.so"
libpetscFoam.so: cannot open shared object file: No such file or directory
Processor 74: field transfer
--> FOAM Warning : 
    From void* Foam::dlLibraryTable::openLibrary(const Foam::fileName&, bool)
    in file db/dynamicLibrary/dlLibraryTable/dlLibraryTable.C at line 188
    Could not load "libpetscFoam.so"
libpetscFoam.so: cannot open shared object file: No such file or directory
Processor 75: field transfer
--> FOAM Warning : 
    From void* Foam::dlLibraryTable::openLibrary(const Foam::fileName&, bool)
    in file db/dynamicLibrary/dlLibraryTable/dlLibraryTable.C at line 188
    Could not load "libpetscFoam.so"
libpetscFoam.so: cannot open shared object file: No such file or directory

End

