/*---------------------------------------------------------------------------*\
| =========                 |                                                 |
| \\      /  F ield         | OpenFOAM: The Open Source CFD Toolbox           |
|  \\    /   O peration     | Version:  2306                                  |
|   \\  /    A nd           | Website:  www.openfoam.com                      |
|    \\/     M anipulation  |                                                 |
\*---------------------------------------------------------------------------*/
Build  : c423ebec-20231012 OPENFOAM=2306 version=v2306
Arch   : "LSB;label=32;scalar=64"
Exec   : icoFoam -parallel -case /hkfs/work/workspace/scratch/eq4036-l3d_multi/workspace/9f325f72c456f53e2fc03cf6a6694e5a/case
Date   : Feb 07 2024
Time   : 22:02:42
Host   : hkn0843.localdomain
PID    : 1462832
I/O    : uncollated
Case   : /hkfs/work/workspace/scratch/eq4036-l3d_multi/workspace/9f325f72c456f53e2fc03cf6a6694e5a/case
nProcs : 76
Hosts  :
(
    (hkn0843.localdomain 76)
)
Pstream initialized with:
    floatTransfer      : false
    nProcsSimpleSum    : 0
    nonBlockingExchange: 0 (tuning: 0)
    exchange algorithm : -1
    commsType          : nonBlocking
    polling iterations : 0
trapFpe: Floating point exception trapping enabled (FOAM_SIGFPE).
fileModificationChecking : Monitoring run-time modified files using timeStampMaster (fileModificationSkew 5, maxFileModificationPolls 20)
allowSystemOperations : Allowing user-supplied system call operations

// * * * * * * * * * * * * * * * * * * * * * * * * * * * * * * * * * * * * * //
Create time

--> FOAM Warning : 
    From void* Foam::dlLibraryTable::openLibrary(const Foam::fileName&, bool)
    in file db/dynamicLibrary/dlLibraryTable/dlLibraryTable.C at line 188
    Could not load "libpetscFoam.so"
libpetscFoam.so: cannot open shared object file: No such file or directory
Create mesh for time = 0


PISO: Operating solver in PISO mode

Reading transportProperties

Reading field p

Reading field U

Reading/calculating face flux field phi


Starting time loop

Time = 8e-05

Courant Number mean: 6.72673e-18 max: 4.16334e-14
[INFO] MatrixAssemblyU: 1095.92 [ms]
DILUPBiCGStab:  Solving for Ux, Initial residual = 1, Final residual = 0.0255215, No Iterations 5
DILUPBiCGStab:  Solving for Uy:  solution singularity
DILUPBiCGStab:  Solving for Uz:  solution singularity
[INFO] MomentumPredictor: 3619.26 [ms]
[INFO] MatrixAssemblyPI: 1107.3 [ms]
[INFO] AdjustPhi: 40.274 [ms]
[INFO] ConstrainPressure: 0.012 [ms]
[INFO] MatrixAssemblyPII: 298.299 [ms]
GAMG:  Solving for p, Initial residual = 1, Final residual = 9.95497e-05, No Iterations 197
[INFO] SolveP: 107503 [ms]
time step continuity errors : sum local = 2.05084e-09, global = 7.15408e-23, cumulative = 7.15408e-23
[INFO] ContinuityError: 100.143 [ms]
[INFO] CorrectBoundary: 6.313 [ms]
[INFO] PISOStep: 109461 [ms]
[INFO] MatrixAssemblyPI: 1073.95 [ms]
[INFO] AdjustPhi: 36.041 [ms]
[INFO] ConstrainPressure: 0.003 [ms]
[INFO] MatrixAssemblyPII: 288.266 [ms]
GAMG:  Solving for p, Initial residual = 0.830985, Final residual = 9.91649e-05, No Iterations 188
[INFO] SolveP: 101193 [ms]
time step continuity errors : sum local = 2.36465e-09, global = -5.85437e-22, cumulative = -5.13896e-22
[INFO] ContinuityError: 103.672 [ms]
[INFO] CorrectBoundary: 5.467 [ms]
[INFO] PISOStep: 103092 [ms]
[INFO] TimeStep: 217403 [ms]
ExecutionTime = 219.7 s  ClockTime = 222 s

Time = 0.00016

Courant Number mean: 0.0069328 max: 0.350303
[INFO] MatrixAssemblyU: 931.751 [ms]
DILUPBiCGStab:  Solving for Ux, Initial residual = 0.106504, Final residual = 0.0157016, No Iterations 5
DILUPBiCGStab:  Solving for Uy, Initial residual = 0.477876, Final residual = 0.059392, No Iterations 5
DILUPBiCGStab:  Solving for Uz, Initial residual = 0.984363, Final residual = 0.148632, No Iterations 5
[INFO] MomentumPredictor: 6652.27 [ms]
[INFO] MatrixAssemblyPI: 1111.08 [ms]
[INFO] AdjustPhi: 43.687 [ms]
[INFO] ConstrainPressure: 0.007 [ms]
[INFO] MatrixAssemblyPII: 295.34 [ms]
GAMG:  Solving for p, Initial residual = 0.931522, Final residual = 9.92285e-05, No Iterations 321
[INFO] SolveP: 172093 [ms]
time step continuity errors : sum local = 4.97659e-09, global = -2.68484e-22, cumulative = -7.82381e-22
[INFO] ContinuityError: 97.35 [ms]
[INFO] CorrectBoundary: 14.06 [ms]
[INFO] PISOStep: 174044 [ms]
[INFO] MatrixAssemblyPI: 1078.57 [ms]
[INFO] AdjustPhi: 59.92 [ms]
[INFO] ConstrainPressure: 0.003 [ms]
[INFO] MatrixAssemblyPII: 303.633 [ms]
GAMG:  Solving for p, Initial residual = 0.855213, Final residual = 9.96033e-05, No Iterations 320
[INFO] SolveP: 171906 [ms]
time step continuity errors : sum local = 5.11569e-09, global = -7.60762e-22, cumulative = -1.54314e-21
[INFO] ContinuityError: 107.846 [ms]
[INFO] CorrectBoundary: 3.875 [ms]
[INFO] PISOStep: 173854 [ms]
[INFO] TimeStep: 355587 [ms]
ExecutionTime = 573.51 s  ClockTime = 578 s

Time = 0.00024

Courant Number mean: 0.0108928 max: 0.407856
[INFO] MatrixAssemblyU: 931.296 [ms]
DILUPBiCGStab:  Solving for Ux, Initial residual = 0.0513472, Final residual = 0.00643143, No Iterations 5
DILUPBiCGStab:  Solving for Uy, Initial residual = 0.243105, Final residual = 0.0328804, No Iterations 5
DILUPBiCGStab:  Solving for Uz, Initial residual = 0.911969, Final residual = 0.149283, No Iterations 5
[INFO] MomentumPredictor: 6596.46 [ms]
[INFO] MatrixAssemblyPI: 1106.04 [ms]
[INFO] AdjustPhi: 103.129 [ms]
[INFO] ConstrainPressure: 0.003 [ms]
[INFO] MatrixAssemblyPII: 294.147 [ms]
GAMG:  Solving for p, Initial residual = 0.954313, Final residual = 9.90256e-05, No Iterations 391
[INFO] SolveP: 209843 [ms]
time step continuity errors : sum local = 5.99955e-09, global = -4.09039e-22, cumulative = -1.95218e-21
[INFO] ContinuityError: 103.911 [ms]
[INFO] CorrectBoundary: 11.001 [ms]
[INFO] PISOStep: 211857 [ms]
[INFO] MatrixAssemblyPI: 1076.62 [ms]
[INFO] AdjustPhi: 71.199 [ms]
[INFO] ConstrainPressure: 0.004 [ms]
[INFO] MatrixAssemblyPII: 290.561 [ms]
GAMG:  Solving for p, Initial residual = 0.899311, Final residual = 9.96779e-05, No Iterations 389
[INFO] SolveP: 209079 [ms]
time step continuity errors : sum local = 5.99015e-09, global = -7.4712e-22, cumulative = -2.6993e-21
[INFO] ContinuityError: 109.33 [ms]
[INFO] CorrectBoundary: 5.402 [ms]
[INFO] PISOStep: 211026 [ms]
[INFO] TimeStep: 430523 [ms]
ExecutionTime = 1001.93 s  ClockTime = 1008 s

Time = 0.00032

Courant Number mean: 0.0133525 max: 0.381672
[INFO] MatrixAssemblyU: 942.33 [ms]
DILUPBiCGStab:  Solving for Ux, Initial residual = 0.0391325, Final residual = 0.00589988, No Iterations 5
DILUPBiCGStab:  Solving for Uy, Initial residual = 0.193117, Final residual = 0.0269854, No Iterations 5
DILUPBiCGStab:  Solving for Uz, Initial residual = 0.880672, Final residual = 0.151381, No Iterations 5
[INFO] MomentumPredictor: 6593.38 [ms]
[INFO] MatrixAssemblyPI: 1108.08 [ms]
[INFO] AdjustPhi: 63.073 [ms]
[INFO] ConstrainPressure: 0.003 [ms]
[INFO] MatrixAssemblyPII: 294.748 [ms]
GAMG:  Solving for p, Initial residual = 0.952296, Final residual = 9.99799e-05, No Iterations 389
[INFO] SolveP: 209208 [ms]
time step continuity errors : sum local = 7.28207e-09, global = -5.05066e-22, cumulative = -3.20437e-21
[INFO] ContinuityError: 100.527 [ms]
[INFO] CorrectBoundary: 7.618 [ms]
[INFO] PISOStep: 211185 [ms]
[INFO] MatrixAssemblyPI: 1073.02 [ms]
[INFO] AdjustPhi: 69.772 [ms]
[INFO] ConstrainPressure: 0.002 [ms]
[INFO] MatrixAssemblyPII: 292.378 [ms]
GAMG:  Solving for p, Initial residual = 0.879687, Final residual = 9.91504e-05, No Iterations 384
[INFO] SolveP: 206630 [ms]
time step continuity errors : sum local = 7.33482e-09, global = -6.3859e-22, cumulative = -3.84296e-21
[INFO] ContinuityError: 93.158 [ms]
[INFO] CorrectBoundary: 3.345 [ms]
[INFO] PISOStep: 208589 [ms]
[INFO] TimeStep: 427416 [ms]
ExecutionTime = 1427.26 s  ClockTime = 1436 s

Time = 0.0004

Courant Number mean: 0.0153823 max: 0.442973
[INFO] MatrixAssemblyU: 946.313 [ms]
DILUPBiCGStab:  Solving for Ux, Initial residual = 0.0346976, Final residual = 0.00545602, No Iterations 5
DILUPBiCGStab:  Solving for Uy, Initial residual = 0.162919, Final residual = 0.0226946, No Iterations 5
DILUPBiCGStab:  Solving for Uz, Initial residual = 0.878093, Final residual = 0.16438, No Iterations 5
[INFO] MomentumPredictor: 6613.01 [ms]
[INFO] MatrixAssemblyPI: 1110.86 [ms]
[INFO] AdjustPhi: 44.323 [ms]
[INFO] ConstrainPressure: 0.007 [ms]
[INFO] MatrixAssemblyPII: 293.514 [ms]
GAMG:  Solving for p, Initial residual = 0.964424, Final residual = 9.95292e-05, No Iterations 399
[INFO] SolveP: 214000 [ms]
time step continuity errors : sum local = 8.17197e-09, global = -7.71251e-22, cumulative = -4.61421e-21
[INFO] ContinuityError: 104.091 [ms]
[INFO] CorrectBoundary: 6.667 [ms]
[INFO] PISOStep: 215945 [ms]
[INFO] MatrixAssemblyPI: 1084.07 [ms]
[INFO] AdjustPhi: 59.181 [ms]
[INFO] ConstrainPressure: 0.004 [ms]
[INFO] MatrixAssemblyPII: 291.498 [ms]
GAMG:  Solving for p, Initial residual = 0.907605, Final residual = 9.98032e-05, No Iterations 397
[INFO] SolveP: 213452 [ms]
time step continuity errors : sum local = 8.15847e-09, global = -7.25677e-22, cumulative = -5.33989e-21
[INFO] ContinuityError: 108.434 [ms]
[INFO] CorrectBoundary: 4.71 [ms]
[INFO] PISOStep: 215398 [ms]
[INFO] TimeStep: 439012 [ms]
ExecutionTime = 1864.11 s  ClockTime = 1875 s

Time = 0.00048

Courant Number mean: 0.0169699 max: 0.386153
[INFO] MatrixAssemblyU: 948.505 [ms]
DILUPBiCGStab:  Solving for Ux, Initial residual = 0.0320422, Final residual = 0.00514035, No Iterations 5
DILUPBiCGStab:  Solving for Uy, Initial residual = 0.149377, Final residual = 0.0189723, No Iterations 5
DILUPBiCGStab:  Solving for Uz, Initial residual = 0.855088, Final residual = 0.161017, No Iterations 5
[INFO] MomentumPredictor: 6622.18 [ms]
[INFO] MatrixAssemblyPI: 1108.15 [ms]
[INFO] AdjustPhi: 44.767 [ms]
[INFO] ConstrainPressure: 0.003 [ms]
[INFO] MatrixAssemblyPII: 294.306 [ms]
GAMG:  Solving for p, Initial residual = 0.961499, Final residual = 9.99107e-05, No Iterations 397
[INFO] SolveP: 212777 [ms]
time step continuity errors : sum local = 9.33146e-09, global = -6.97615e-22, cumulative = -6.0375e-21
[INFO] ContinuityError: 107.341 [ms]
[INFO] CorrectBoundary: 6.233 [ms]
[INFO] PISOStep: 214722 [ms]
[INFO] MatrixAssemblyPI: 1046.43 [ms]
[INFO] AdjustPhi: 102.874 [ms]
[INFO] ConstrainPressure: 0.003 [ms]
[INFO] MatrixAssemblyPII: 289.483 [ms]
GAMG:  Solving for p, Initial residual = 0.889327, Final residual = 9.8785e-05, No Iterations 391
[INFO] SolveP: 209992 [ms]
time step continuity errors : sum local = 9.34803e-09, global = -8.99575e-22, cumulative = -6.93708e-21
[INFO] ContinuityError: 108.61 [ms]
[INFO] CorrectBoundary: 5.137 [ms]
[INFO] PISOStep: 211937 [ms]
[INFO] TimeStep: 434357 [ms]
ExecutionTime = 2296.29 s  ClockTime = 2309 s

Time = 0.00056

Courant Number mean: 0.0184184 max: 0.485027
[INFO] MatrixAssemblyU: 919.736 [ms]
DILUPBiCGStab:  Solving for Ux, Initial residual = 0.0310618, Final residual = 0.0048601, No Iterations 5
DILUPBiCGStab:  Solving for Uy, Initial residual = 0.149241, Final residual = 0.0177978, No Iterations 5
DILUPBiCGStab:  Solving for Uz, Initial residual = 0.853488, Final residual = 0.163072, No Iterations 5
[INFO] MomentumPredictor: 6621.25 [ms]
[INFO] MatrixAssemblyPI: 1098.75 [ms]
[INFO] AdjustPhi: 74.494 [ms]
[INFO] ConstrainPressure: 0.003 [ms]
[INFO] MatrixAssemblyPII: 293.321 [ms]
GAMG:  Solving for p, Initial residual = 0.969723, Final residual = 9.87052e-05, No Iterations 401
[INFO] SolveP: 215557 [ms]
time step continuity errors : sum local = 1.02171e-08, global = -4.44494e-22, cumulative = -7.38157e-21
[INFO] ContinuityError: 99.427 [ms]
[INFO] CorrectBoundary: 6.455 [ms]
[INFO] PISOStep: 217517 [ms]
[INFO] MatrixAssemblyPI: 1082.89 [ms]
[INFO] AdjustPhi: 61.866 [ms]
[INFO] ConstrainPressure: 0.003 [ms]
[INFO] MatrixAssemblyPII: 287.614 [ms]
GAMG:  Solving for p, Initial residual = 0.910294, Final residual = 9.98597e-05, No Iterations 398
[INFO] SolveP: 214085 [ms]
time step continuity errors : sum local = 1.03101e-08, global = -6.75736e-22, cumulative = -8.05731e-21
[INFO] ContinuityError: 109.101 [ms]
[INFO] CorrectBoundary: 4.793 [ms]
[INFO] PISOStep: 216040 [ms]
[INFO] TimeStep: 441203 [ms]
ExecutionTime = 2735.29 s  ClockTime = 2750 s

Time = 0.00064

Courant Number mean: 0.0196198 max: 0.391912
[INFO] MatrixAssemblyU: 933.472 [ms]
DILUPBiCGStab:  Solving for Ux, Initial residual = 0.0312614, Final residual = 0.00464564, No Iterations 5
DILUPBiCGStab:  Solving for Uy, Initial residual = 0.142582, Final residual = 0.0154496, No Iterations 5
DILUPBiCGStab:  Solving for Uz, Initial residual = 0.839313, Final residual = 0.157783, No Iterations 5
[INFO] MomentumPredictor: 6638.52 [ms]
[INFO] MatrixAssemblyPI: 1107.04 [ms]
[INFO] AdjustPhi: 43.65 [ms]
[INFO] ConstrainPressure: 0.003 [ms]
[INFO] MatrixAssemblyPII: 292.42 [ms]
GAMG:  Solving for p, Initial residual = 0.967679, Final residual = 9.99093e-05, No Iterations 397
[INFO] SolveP: 213008 [ms]
time step continuity errors : sum local = 1.16675e-08, global = -9.75556e-22, cumulative = -9.03286e-21
[INFO] ContinuityError: 97.508 [ms]
[INFO] CorrectBoundary: 6.19 [ms]
[INFO] PISOStep: 214947 [ms]
[INFO] MatrixAssemblyPI: 1069.15 [ms]
[INFO] AdjustPhi: 64.438 [ms]
[INFO] ConstrainPressure: 0.003 [ms]
[INFO] MatrixAssemblyPII: 293.533 [ms]
GAMG:  Solving for p, Initial residual = 0.894663, Final residual = 9.96894e-05, No Iterations 394
[INFO] SolveP: 211759 [ms]
time step continuity errors : sum local = 1.1786e-08, global = -4.94133e-22, cumulative = -9.52699e-21
[INFO] ContinuityError: 115.145 [ms]
[INFO] CorrectBoundary: 5.326 [ms]
[INFO] PISOStep: 213704 [ms]
[INFO] TimeStep: 436330 [ms]
ExecutionTime = 3169.47 s  ClockTime = 3186 s

Time = 0.00072

Courant Number mean: 0.020803 max: 0.545317
[INFO] MatrixAssemblyU: 923.969 [ms]
DILUPBiCGStab:  Solving for Ux, Initial residual = 0.0315626, Final residual = 0.00438928, No Iterations 5
DILUPBiCGStab:  Solving for Uy, Initial residual = 0.152255, Final residual = 0.0154935, No Iterations 5
DILUPBiCGStab:  Solving for Uz, Initial residual = 0.837571, Final residual = 0.156175, No Iterations 5
[INFO] MomentumPredictor: 6636.49 [ms]
[INFO] MatrixAssemblyPI: 1117.35 [ms]
[INFO] AdjustPhi: 42.416 [ms]
[INFO] ConstrainPressure: 0.004 [ms]
[INFO] MatrixAssemblyPII: 297.825 [ms]
GAMG:  Solving for p, Initial residual = 0.97365, Final residual = 9.9209e-05, No Iterations 399
[INFO] SolveP: 213791 [ms]
time step continuity errors : sum local = 1.29641e-08, global = -6.65698e-22, cumulative = -1.01927e-20
[INFO] ContinuityError: 99.637 [ms]
[INFO] CorrectBoundary: 6.194 [ms]
[INFO] PISOStep: 215758 [ms]
[INFO] MatrixAssemblyPI: 1067.89 [ms]
[INFO] AdjustPhi: 57.907 [ms]
[INFO] ConstrainPressure: 0.005 [ms]
[INFO] MatrixAssemblyPII: 288.24 [ms]
GAMG:  Solving for p, Initial residual = 0.911841, Final residual = 9.90368e-05, No Iterations 397
[INFO] SolveP: 213288 [ms]
time step continuity errors : sum local = 1.29277e-08, global = -7.48185e-22, cumulative = -1.09409e-20
[INFO] ContinuityError: 113.937 [ms]
[INFO] CorrectBoundary: 4.422 [ms]
[INFO] PISOStep: 215214 [ms]
[INFO] TimeStep: 438641 [ms]
ExecutionTime = 3605.95 s  ClockTime = 3625 s

Time = 0.0008

Courant Number mean: 0.0217885 max: 0.402289
[INFO] MatrixAssemblyU: 925.642 [ms]
DILUPBiCGStab:  Solving for Ux, Initial residual = 0.033393, Final residual = 0.0043613, No Iterations 5
DILUPBiCGStab:  Solving for Uy, Initial residual = 0.150069, Final residual = 0.0137946, No Iterations 5
DILUPBiCGStab:  Solving for Uz, Initial residual = 0.829564, Final residual = 0.150554, No Iterations 5
[INFO] MomentumPredictor: 6655.35 [ms]
[INFO] MatrixAssemblyPI: 1105.89 [ms]
[INFO] AdjustPhi: 42.671 [ms]
[INFO] ConstrainPressure: 0.007 [ms]
[INFO] MatrixAssemblyPII: 291.781 [ms]
GAMG:  Solving for p, Initial residual = 0.972677, Final residual = 9.96674e-05, No Iterations 397
[INFO] SolveP: 212755 [ms]
time step continuity errors : sum local = 1.47987e-08, global = -8.74851e-22, cumulative = -1.18157e-20
[INFO] ContinuityError: 104.323 [ms]
[INFO] CorrectBoundary: 8.158 [ms]
[INFO] PISOStep: 214700 [ms]
[INFO] MatrixAssemblyPI: 1074.64 [ms]
[INFO] AdjustPhi: 76.088 [ms]
[INFO] ConstrainPressure: 0.004 [ms]
[INFO] MatrixAssemblyPII: 290.31 [ms]
GAMG:  Solving for p, Initial residual = 0.899412, Final residual = 9.92956e-05, No Iterations 394
[INFO] SolveP: 212572 [ms]
time step continuity errors : sum local = 1.49132e-08, global = -9.97431e-22, cumulative = -1.28132e-20
[INFO] ContinuityError: 107.393 [ms]
[INFO] CorrectBoundary: 3.926 [ms]
[INFO] PISOStep: 214531 [ms]
[INFO] TimeStep: 436933 [ms]
ExecutionTime = 4040.74 s  ClockTime = 4062 s

Time = 0.00088

Courant Number mean: 0.0228227 max: 0.636138
[INFO] MatrixAssemblyU: 924.891 [ms]
DILUPBiCGStab:  Solving for Ux, Initial residual = 0.0347305, Final residual = 0.00416011, No Iterations 5
DILUPBiCGStab:  Solving for Uy, Initial residual = 0.165246, Final residual = 0.0143898, No Iterations 5
DILUPBiCGStab:  Solving for Uz, Initial residual = 0.829617, Final residual = 0.147653, No Iterations 5
[INFO] MomentumPredictor: 6664.19 [ms]
[INFO] MatrixAssemblyPI: 1102.97 [ms]
[INFO] AdjustPhi: 47.074 [ms]
[INFO] ConstrainPressure: 0.007 [ms]
[INFO] MatrixAssemblyPII: 291.699 [ms]
GAMG:  Solving for p, Initial residual = 0.977096, Final residual = 9.9196e-05, No Iterations 398
[INFO] SolveP: 213150 [ms]
time step continuity errors : sum local = 1.66464e-08, global = -4.73875e-22, cumulative = -1.3287e-20
[INFO] ContinuityError: 97.639 [ms]
[INFO] CorrectBoundary: 10.666 [ms]
[INFO] PISOStep: 215087 [ms]
[INFO] MatrixAssemblyPI: 1059.33 [ms]
[INFO] AdjustPhi: 117.071 [ms]
[INFO] ConstrainPressure: 0.004 [ms]
[INFO] MatrixAssemblyPII: 290.083 [ms]
GAMG:  Solving for p, Initial residual = 0.913059, Final residual = 9.93168e-05, No Iterations 396
[INFO] SolveP: 212981 [ms]
time step continuity errors : sum local = 1.66727e-08, global = -1.12781e-21, cumulative = -1.44148e-20
[INFO] ContinuityError: 106.124 [ms]
[INFO] CorrectBoundary: 3.978 [ms]
[INFO] PISOStep: 214964 [ms]
[INFO] TimeStep: 437745 [ms]
ExecutionTime = 4476.31 s  ClockTime = 4500 s

Time = 0.00096

Courant Number mean: 0.0236686 max: 0.447416
[INFO] MatrixAssemblyU: 927.033 [ms]
DILUPBiCGStab:  Solving for Ux, Initial residual = 0.0378882, Final residual = 0.00425757, No Iterations 5
DILUPBiCGStab:  Solving for Uy, Initial residual = 0.167458, Final residual = 0.0132654, No Iterations 5
DILUPBiCGStab:  Solving for Uz, Initial residual = 0.825157, Final residual = 0.142243, No Iterations 5
[INFO] MomentumPredictor: 6646.16 [ms]
[INFO] MatrixAssemblyPI: 1103.05 [ms]
[INFO] AdjustPhi: 43.628 [ms]
[INFO] ConstrainPressure: 0.003 [ms]
[INFO] MatrixAssemblyPII: 292.855 [ms]
GAMG:  Solving for p, Initial residual = 0.976992, Final residual = 9.90584e-05, No Iterations 396
[INFO] SolveP: 212625 [ms]
time step continuity errors : sum local = 1.89975e-08, global = -6.00012e-22, cumulative = -1.50149e-20
[INFO] ContinuityError: 96.633 [ms]
[INFO] CorrectBoundary: 10.242 [ms]
[INFO] PISOStep: 214559 [ms]
[INFO] MatrixAssemblyPI: 1054.7 [ms]
[INFO] AdjustPhi: 89.209 [ms]
[INFO] ConstrainPressure: 0.004 [ms]
[INFO] MatrixAssemblyPII: 291.053 [ms]
GAMG:  Solving for p, Initial residual = 0.903398, Final residual = 9.94296e-05, No Iterations 393
[INFO] SolveP: 211395 [ms]
time step continuity errors : sum local = 1.9271e-08, global = -7.01218e-22, cumulative = -1.57161e-20
[INFO] ContinuityError: 108.625 [ms]
[INFO] CorrectBoundary: 3.46 [ms]
[INFO] PISOStep: 213341 [ms]
[INFO] TimeStep: 435579 [ms]
ExecutionTime = 4909.76 s  ClockTime = 4935 s

Time = 0.00104

Courant Number mean: 0.0246125 max: 0.862626
[INFO] MatrixAssemblyU: 932.341 [ms]
DILUPBiCGStab:  Solving for Ux, Initial residual = 0.0404408, Final residual = 0.0041504, No Iterations 5
DILUPBiCGStab:  Solving for Uy, Initial residual = 0.186352, Final residual = 0.0141282, No Iterations 5
DILUPBiCGStab:  Solving for Uz, Initial residual = 0.825773, Final residual = 0.138546, No Iterations 5
[INFO] MomentumPredictor: 6621.43 [ms]
[INFO] MatrixAssemblyPI: 1105.31 [ms]
[INFO] AdjustPhi: 42.424 [ms]
[INFO] ConstrainPressure: 0.004 [ms]
[INFO] MatrixAssemblyPII: 294.391 [ms]
GAMG:  Solving for p, Initial residual = 0.979985, Final residual = 9.88233e-05, No Iterations 397
[INFO] SolveP: 213168 [ms]
time step continuity errors : sum local = 2.16266e-08, global = -4.57844e-22, cumulative = -1.61739e-20
[INFO] ContinuityError: 96.088 [ms]
[INFO] CorrectBoundary: 6.348 [ms]
[INFO] PISOStep: 215105 [ms]
[INFO] MatrixAssemblyPI: 1061.72 [ms]
[INFO] AdjustPhi: 70.766 [ms]
[INFO] ConstrainPressure: 0.004 [ms]
[INFO] MatrixAssemblyPII: 289.881 [ms]
GAMG:  Solving for p, Initial residual = 0.914122, Final residual = 9.95143e-05, No Iterations 394
[INFO] SolveP: 212207 [ms]
time step continuity errors : sum local = 2.1816e-08, global = -9.46625e-22, cumulative = -1.71205e-20
[INFO] ContinuityError: 108.658 [ms]
[INFO] CorrectBoundary: 4.083 [ms]
[INFO] PISOStep: 214134 [ms]
[INFO] TimeStep: 436911 [ms]
ExecutionTime = 5344.53 s  ClockTime = 5372 s

Time = 0.00112

Courant Number mean: 0.0253627 max: 0.722772
[INFO] MatrixAssemblyU: 919.779 [ms]
DILUPBiCGStab:  Solving for Ux, Initial residual = 0.0451407, Final residual = 0.0043369, No Iterations 5
DILUPBiCGStab:  Solving for Uy, Initial residual = 0.193386, Final residual = 0.0135092, No Iterations 5
DILUPBiCGStab:  Solving for Uz, Initial residual = 0.823005, Final residual = 0.133435, No Iterations 5
[INFO] MomentumPredictor: 6638.06 [ms]
[INFO] MatrixAssemblyPI: 1109.11 [ms]
[INFO] AdjustPhi: 42.28 [ms]
[INFO] ConstrainPressure: 0.003 [ms]
[INFO] MatrixAssemblyPII: 292.773 [ms]
GAMG:  Solving for p, Initial residual = 0.980225, Final residual = 9.90325e-05, No Iterations 394
[INFO] SolveP: 211458 [ms]
time step continuity errors : sum local = 2.49005e-08, global = -1.25908e-21, cumulative = -1.83796e-20
[INFO] ContinuityError: 99.479 [ms]
[INFO] CorrectBoundary: 8.63 [ms]
[INFO] PISOStep: 213411 [ms]
[INFO] MatrixAssemblyPI: 1078.82 [ms]
[INFO] AdjustPhi: 67.449 [ms]
[INFO] ConstrainPressure: 0.004 [ms]
[INFO] MatrixAssemblyPII: 293.322 [ms]
GAMG:  Solving for p, Initial residual = 0.90698, Final residual = 9.90564e-05, No Iterations 391
[INFO] SolveP: 210591 [ms]
time step continuity errors : sum local = 2.51564e-08, global = -1.08512e-21, cumulative = -1.94647e-20
[INFO] ContinuityError: 119.634 [ms]
[INFO] CorrectBoundary: 4 [ms]
[INFO] PISOStep: 212547 [ms]
[INFO] TimeStep: 433622 [ms]
ExecutionTime = 5776.04 s  ClockTime = 5806 s

Time = 0.0012

Courant Number mean: 0.0262546 max: 1.23318
[INFO] MatrixAssemblyU: 919.781 [ms]
DILUPBiCGStab:  Solving for Ux, Initial residual = 0.0492661, Final residual = 0.00435256, No Iterations 5
DILUPBiCGStab:  Solving for Uy, Initial residual = 0.2155, Final residual = 0.0145157, No Iterations 5
DILUPBiCGStab:  Solving for Uz, Initial residual = 0.822623, Final residual = 0.129273, No Iterations 5
[INFO] MomentumPredictor: 6639.17 [ms]
[INFO] MatrixAssemblyPI: 1102.51 [ms]
[INFO] AdjustPhi: 43.472 [ms]
[INFO] ConstrainPressure: 0.003 [ms]
[INFO] MatrixAssemblyPII: 293.468 [ms]
GAMG:  Solving for p, Initial residual = 0.981968, Final residual = 9.94573e-05, No Iterations 394
[INFO] SolveP: 212160 [ms]
time step continuity errors : sum local = 2.87287e-08, global = -5.67396e-22, cumulative = -2.00321e-20
[INFO] ContinuityError: 102.192 [ms]
[INFO] CorrectBoundary: 8.567 [ms]
[INFO] PISOStep: 214104 [ms]
[INFO] MatrixAssemblyPI: 1071.63 [ms]
[INFO] AdjustPhi: 59.384 [ms]
[INFO] ConstrainPressure: 0.003 [ms]
[INFO] MatrixAssemblyPII: 289.361 [ms]
GAMG:  Solving for p, Initial residual = 0.915122, Final residual = 9.88288e-05, No Iterations 392
[INFO] SolveP: 210921 [ms]
time step continuity errors : sum local = 2.86285e-08, global = -7.33842e-22, cumulative = -2.0766e-20
[INFO] ContinuityError: 104.75 [ms]
[INFO] CorrectBoundary: 3.297 [ms]
[INFO] PISOStep: 212847 [ms]
[INFO] TimeStep: 434633 [ms]
ExecutionTime = 6208.54 s  ClockTime = 6241 s

Time = 0.00128

Courant Number mean: 0.0269415 max: 1.19289
[INFO] MatrixAssemblyU: 926.866 [ms]
DILUPBiCGStab:  Solving for Ux, Initial residual = 0.0560649, Final residual = 0.00463772, No Iterations 5
DILUPBiCGStab:  Solving for Uy, Initial residual = 0.227749, Final residual = 0.0143436, No Iterations 5
DILUPBiCGStab:  Solving for Uz, Initial residual = 0.82042, Final residual = 0.12454, No Iterations 5
[INFO] MomentumPredictor: 6648.62 [ms]
[INFO] MatrixAssemblyPI: 1104.19 [ms]
[INFO] AdjustPhi: 42.547 [ms]
[INFO] ConstrainPressure: 0.006 [ms]
[INFO] MatrixAssemblyPII: 294.189 [ms]
GAMG:  Solving for p, Initial residual = 0.98276, Final residual = 9.90383e-05, No Iterations 396
[INFO] SolveP: 212939 [ms]
time step continuity errors : sum local = 3.30271e-08, global = -1.25688e-21, cumulative = -2.20229e-20
[INFO] ContinuityError: 101.97 [ms]
[INFO] CorrectBoundary: 6.132 [ms]
[INFO] PISOStep: 214880 [ms]
[INFO] MatrixAssemblyPI: 1078.27 [ms]
[INFO] AdjustPhi: 73.042 [ms]
[INFO] ConstrainPressure: 0.004 [ms]
[INFO] MatrixAssemblyPII: 291.642 [ms]
GAMG:  Solving for p, Initial residual = 0.910052, Final residual = 9.90552e-05, No Iterations 393
[INFO] SolveP: 211421 [ms]
time step continuity errors : sum local = 3.33394e-08, global = -1.31548e-21, cumulative = -2.33383e-20
[INFO] ContinuityError: 123.494 [ms]
[INFO] CorrectBoundary: 3.377 [ms]
[INFO] PISOStep: 213384 [ms]
[INFO] TimeStep: 435945 [ms]
ExecutionTime = 6642.34 s  ClockTime = 6677 s

Time = 0.00136

Courant Number mean: 0.0278128 max: 1.80839
[INFO] MatrixAssemblyU: 919.42 [ms]
DILUPBiCGStab:  Solving for Ux, Initial residual = 0.0621824, Final residual = 0.0047953, No Iterations 5
DILUPBiCGStab:  Solving for Uy, Initial residual = 0.253091, Final residual = 0.0154771, No Iterations 5
DILUPBiCGStab:  Solving for Uz, Initial residual = 0.818974, Final residual = 0.120298, No Iterations 5
[INFO] MomentumPredictor: 6588.25 [ms]
[INFO] MatrixAssemblyPI: 1115.51 [ms]
[INFO] AdjustPhi: 41.684 [ms]
[INFO] ConstrainPressure: 0.004 [ms]
[INFO] MatrixAssemblyPII: 298.14 [ms]
GAMG:  Solving for p, Initial residual = 0.983646, Final residual = 9.88871e-05, No Iterations 396
[INFO] SolveP: 212635 [ms]
time step continuity errors : sum local = 3.81635e-08, global = -3.31286e-22, cumulative = -2.36696e-20
[INFO] ContinuityError: 99.884 [ms]
[INFO] CorrectBoundary: 8.583 [ms]
[INFO] PISOStep: 214597 [ms]
[INFO] MatrixAssemblyPI: 1069.68 [ms]
[INFO] AdjustPhi: 57.456 [ms]
[INFO] ConstrainPressure: 0.004 [ms]
[INFO] MatrixAssemblyPII: 289.673 [ms]
GAMG:  Solving for p, Initial residual = 0.915842, Final residual = 9.94491e-05, No Iterations 393
[INFO] SolveP: 211230 [ms]
time step continuity errors : sum local = 3.85296e-08, global = -7.69741e-22, cumulative = -2.44394e-20
[INFO] ContinuityError: 105.669 [ms]
[INFO] CorrectBoundary: 7.015 [ms]
[INFO] PISOStep: 213147 [ms]
[INFO] TimeStep: 435367 [ms]
ExecutionTime = 7075.55 s  ClockTime = 7112 s

Time = 0.00144

Courant Number mean: 0.0284665 max: 1.94421
[INFO] MatrixAssemblyU: 927.377 [ms]
DILUPBiCGStab:  Solving for Ux, Initial residual = 0.0718126, Final residual = 0.00522469, No Iterations 5
DILUPBiCGStab:  Solving for Uy, Initial residual = 0.270972, Final residual = 0.0157281, No Iterations 5
DILUPBiCGStab:  Solving for Uz, Initial residual = 0.816828, Final residual = 0.115935, No Iterations 5
[INFO] MomentumPredictor: 6781.05 [ms]
[INFO] MatrixAssemblyPI: 1105.47 [ms]
[INFO] AdjustPhi: 42.094 [ms]
[INFO] ConstrainPressure: 0.003 [ms]
[INFO] MatrixAssemblyPII: 294.504 [ms]
GAMG:  Solving for p, Initial residual = 0.984775, Final residual = 9.95e-05, No Iterations 395
[INFO] SolveP: 212615 [ms]
time step continuity errors : sum local = 4.46096e-08, global = -7.13559e-22, cumulative = -2.51529e-20
[INFO] ContinuityError: 101.171 [ms]
[INFO] CorrectBoundary: 13.83 [ms]
[INFO] PISOStep: 214563 [ms]
[INFO] MatrixAssemblyPI: 1078.79 [ms]
[INFO] AdjustPhi: 67.2 [ms]
[INFO] ConstrainPressure: 0.004 [ms]
[INFO] MatrixAssemblyPII: 292.239 [ms]
GAMG:  Solving for p, Initial residual = 0.912501, Final residual = 9.96485e-05, No Iterations 392
[INFO] SolveP: 210572 [ms]
time step continuity errors : sum local = 4.5077e-08, global = -1.12475e-21, cumulative = -2.62777e-20
[INFO] ContinuityError: 97.389 [ms]
[INFO] CorrectBoundary: 3.279 [ms]
[INFO] PISOStep: 212538 [ms]
[INFO] TimeStep: 434916 [ms]
ExecutionTime = 7508.32 s  ClockTime = 7547 s

Time = 0.00152

Courant Number mean: 0.0293487 max: 2.70093
[INFO] MatrixAssemblyU: 965.85 [ms]
DILUPBiCGStab:  Solving for Ux, Initial residual = 0.0804066, Final residual = 0.00553563, No Iterations 5
DILUPBiCGStab:  Solving for Uy, Initial residual = 0.299086, Final residual = 0.0169862, No Iterations 5
DILUPBiCGStab:  Solving for Uz, Initial residual = 0.815109, Final residual = 0.112235, No Iterations 5
[INFO] MomentumPredictor: 6557.71 [ms]
[INFO] MatrixAssemblyPI: 1133.1 [ms]
[INFO] AdjustPhi: 50.063 [ms]
[INFO] ConstrainPressure: 0.004 [ms]
[INFO] MatrixAssemblyPII: 307.058 [ms]
GAMG:  Solving for p, Initial residual = 0.985065, Final residual = 9.95952e-05, No Iterations 395
[INFO] SolveP: 212245 [ms]
time step continuity errors : sum local = 5.20738e-08, global = -8.81477e-22, cumulative = -2.71592e-20
[INFO] ContinuityError: 95.893 [ms]
[INFO] CorrectBoundary: 6.29 [ms]
[INFO] PISOStep: 214228 [ms]
[INFO] MatrixAssemblyPI: 1081.54 [ms]
[INFO] AdjustPhi: 54.191 [ms]
[INFO] ConstrainPressure: 0.003 [ms]
[INFO] MatrixAssemblyPII: 290.277 [ms]
GAMG:  Solving for p, Initial residual = 0.916519, Final residual = 9.88548e-05, No Iterations 393
[INFO] SolveP: 211317 [ms]
time step continuity errors : sum local = 5.1941e-08, global = -1.24302e-21, cumulative = -2.84022e-20
[INFO] ContinuityError: 106.98 [ms]
[INFO] CorrectBoundary: 3.535 [ms]
[INFO] PISOStep: 213246 [ms]
[INFO] TimeStep: 435107 [ms]
ExecutionTime = 7941.3 s  ClockTime = 7982 s

Time = 0.0016

Courant Number mean: 0.0300033 max: 3.13547
[INFO] MatrixAssemblyU: 927.987 [ms]
DILUPBiCGStab:  Solving for Ux, Initial residual = 0.0939086, Final residual = 0.00617151, No Iterations 5
DILUPBiCGStab:  Solving for Uy, Initial residual = 0.322297, Final residual = 0.0176239, No Iterations 5
DILUPBiCGStab:  Solving for Uz, Initial residual = 0.812722, Final residual = 0.108145, No Iterations 5
[INFO] MomentumPredictor: 6643.93 [ms]
[INFO] MatrixAssemblyPI: 1104.31 [ms]
[INFO] AdjustPhi: 52.125 [ms]
[INFO] ConstrainPressure: 0.003 [ms]
[INFO] MatrixAssemblyPII: 291.952 [ms]
GAMG:  Solving for p, Initial residual = 0.986041, Final residual = 9.90815e-05, No Iterations 395
[INFO] SolveP: 211453 [ms]
time step continuity errors : sum local = 6.0597e-08, global = -3.88279e-22, cumulative = -2.87905e-20
[INFO] ContinuityError: 97.493 [ms]
[INFO] CorrectBoundary: 6.092 [ms]
[INFO] PISOStep: 213398 [ms]
[INFO] MatrixAssemblyPI: 1072.09 [ms]
[INFO] AdjustPhi: 59.483 [ms]
[INFO] ConstrainPressure: 0.004 [ms]
[INFO] MatrixAssemblyPII: 292.852 [ms]
GAMG:  Solving for p, Initial residual = 0.914301, Final residual = 9.92825e-05, No Iterations 392
[INFO] SolveP: 209435 [ms]
time step continuity errors : sum local = 6.12484e-08, global = -1.5232e-21, cumulative = -3.03137e-20
[INFO] ContinuityError: 112.136 [ms]
[INFO] CorrectBoundary: 4.179 [ms]
[INFO] PISOStep: 211379 [ms]
[INFO] TimeStep: 432455 [ms]
ExecutionTime = 8371.65 s  ClockTime = 8414 s

End

Finalising parallel run
