/*---------------------------------------------------------------------------*\
| =========                 |                                                 |
| \\      /  F ield         | OpenFOAM: The Open Source CFD Toolbox           |
|  \\    /   O peration     | Version:  2306                                  |
|   \\  /    A nd           | Website:  www.openfoam.com                      |
|    \\/     M anipulation  |                                                 |
\*---------------------------------------------------------------------------*/
Build  : a6e826bd55-20230630 OPENFOAM=2306 version=v2306
Arch   : "LSB;label=32;scalar=64"
Exec   : icoFoam -parallel -case /tmp/lidDrivenCavity/workspace/9de489205abf0aa3a580bb721335bf81/case
Date   : Jan 10 2024
Time   : 03:44:49
Host   : nla-gpu2.ianm.kit.edu
PID    : 407373
I/O    : uncollated
Case   : /tmp/lidDrivenCavity/workspace/9de489205abf0aa3a580bb721335bf81/case
nProcs : 32
Hosts  :
(
    (nla-gpu2.ianm.kit.edu 32)
)
Pstream initialized with:
    floatTransfer      : false
    nProcsSimpleSum    : 0
    nonBlockingExchange: 0 (tuning: 0)
    exchange algorithm : -1
    commsType          : nonBlocking
    polling iterations : 0
trapFpe: Floating point exception trapping enabled (FOAM_SIGFPE).
fileModificationChecking : Monitoring run-time modified files using timeStampMaster (fileModificationSkew 5, maxFileModificationPolls 20)
allowSystemOperations : Allowing user-supplied system call operations

// * * * * * * * * * * * * * * * * * * * * * * * * * * * * * * * * * * * * * //
Create time

--> FOAM Warning : 
    From void* Foam::dlLibraryTable::openLibrary(const Foam::fileName&, bool)
    in file db/dynamicLibrary/dlLibraryTable/dlLibraryTable.C at line 188
    Could not load "libpetscFoam.so"
libpetscFoam.so: cannot open shared object file: No such file or directory
Create mesh for time = 0


PISO: Operating solver in PISO mode

Reading transportProperties

Reading field p

Reading field U

Reading/calculating face flux field phi


Starting time loop

Time = 0.000166

Courant Number mean: 8.14055e-18 max: 3.11001e-14
[INFO] MatrixAssemblyU: 234.901 [ms]
DILUPBiCGStab:  Solving for Ux, Initial residual = 1, Final residual = 0.0163135, No Iterations 5
DILUPBiCGStab:  Solving for Uy:  solution singularity
DILUPBiCGStab:  Solving for Uz:  solution singularity
[INFO] MomentumPredictor: 881.688 [ms]
[INFO] MatrixAssemblyPI: 249.039 [ms]
[INFO] AdjustPhi: 11.351 [ms]
[INFO] ConstrainPressure: 0.016 [ms]
[INFO] MatrixAssemblyPII: 69.124 [ms]
[14] 
[14] 
[14] --> FOAM FATAL IO ERROR: (openfoam-2306)
[14] Entry 'smoother' not found in dictionary ""
[14] 
[14] 
[14]     From const Foam::entry& Foam::dictionary::lookupEntry(const Foam::word&, Foam::keyType::option) const
[14]     in file db/dictionary/dictionary.C at line 375.
[14] 
FOAM parallel run exiting
[14] 
application called MPI_Abort(MPI_COMM_WORLD, 1) - process 14
[cli_14]: aborting job:
application called MPI_Abort(MPI_COMM_WORLD, 1) - process 14
[20] 
[20] 
[20] --> FOAM FATAL IO ERROR: (openfoam-2306)
[20] Entry 'smoother' not found in dictionary ""
[20] 
[20] 
[20]     From const Foam::entry& Foam::dictionary::lookupEntry(const Foam::word&, Foam::keyType::option) const
[20]     in file db/dictionary/dictionary.C at line 375.
[20] 
FOAM parallel run exiting
[20] 
application called MPI_Abort(MPI_COMM_WORLD, 1) - process 20
[cli_20]: aborting job:
application called MPI_Abort(MPI_COMM_WORLD, 1) - process 20
