/*---------------------------------------------------------------------------*\
| =========                 |                                                 |
| \\      /  F ield         | OpenFOAM: The Open Source CFD Toolbox           |
|  \\    /   O peration     | Version:  2312                                  |
|   \\  /    A nd           | Website:  www.openfoam.com                      |
|    \\/     M anipulation  |                                                 |
\*---------------------------------------------------------------------------*/
Build  : a46b310f-20240104 OPENFOAM=2312 version=v2312
Arch   : "LSB;label=32;scalar=64"
Exec   : decomposePar -force
Date   : Feb 16 2024
Time   : 21:39:53
Host   : i20r02c03s10
PID    : 15625
--> FOAM Warning : 
    From Foam::fileName Foam::cwd_L()
    in file POSIX.C at line 552
    PWD is not the cwd() - reverting to physical description
I/O    : uncollated
--> FOAM Warning : 
    From Foam::fileName Foam::cwd_L()
    in file POSIX.C at line 552
    PWD is not the cwd() - reverting to physical description
Case   : /hppfs/scratch/0B/di35yan/lidDriven3D/workspace/dce550b3ae6a81cd4b9b2dc8080d61a0/case
nProcs : 1
trapFpe: Floating point exception trapping enabled (FOAM_SIGFPE).
fileModificationChecking : Monitoring run-time modified files using timeStampMaster (fileModificationSkew 5, maxFileModificationPolls 20)
allowSystemOperations : Allowing user-supplied system call operations

// * * * * * * * * * * * * * * * * * * * * * * * * * * * * * * * * * * * * * //
Create time

--> FOAM Warning : 
    From void* Foam::dlLibraryTable::openLibrary(const Foam::fileName&, bool)
    in file db/dynamicLibrary/dlLibraryTable/dlLibraryTable.C at line 188
    Could not load "libpetscFoam.so"
libpetscFoam.so: cannot open shared object file: No such file or directory


Decomposing mesh

Create mesh

Calculating distribution of cells
Decomposition method simple [672] (region region0)

Finished decomposition in 85.24 s

Calculating original mesh data

Distributing cells to processors

Distributing faces to processors

Distributing points to processors

Constructing processor meshes

Processor 0
    Number of cells = 187824
    Number of points = 199272
    Number of faces shared with processor 1 = 4461
    Number of faces shared with processor 12 = 1512
    Number of faces shared with processor 48 = 5312
    Number of faces shared with processor 49 = 1
    Number of processor patches = 4
    Number of processor faces = 11286
    Number of boundary faces = 11202

Processor 1
    Number of cells = 186942
    Number of points = 198369
    Number of faces shared with processor 0 = 4461
    Number of faces shared with processor 2 = 4440
    Number of faces shared with processor 13 = 1512
    Number of faces shared with processor 49 = 5312
    Number of faces shared with processor 50 = 1
    Number of processor patches = 5
    Number of processor faces = 15726
    Number of boundary faces = 6720

Processor 2
    Number of cells = 181641
    Number of points = 192888
    Number of faces shared with processor 1 = 4440
    Number of faces shared with processor 3 = 4422
    Number of faces shared with processor 14 = 1476
    Number of faces shared with processor 50 = 5186
    Number of processor patches = 4
    Number of processor faces = 15524
    Number of boundary faces = 6562

Processor 3
    Number of cells = 185187
    Number of points = 196573
    Number of faces shared with processor 2 = 4422
    Number of faces shared with processor 4 = 4398
    Number of faces shared with processor 15 = 1512
    Number of faces shared with processor 51 = 5313
    Number of faces shared with processor 52 = 1
    Number of processor patches = 5
    Number of processor faces = 15646
    Number of boundary faces = 6718

Processor 4
    Number of cells = 184296
    Number of points = 195660
    Number of faces shared with processor 3 = 4398
    Number of faces shared with processor 5 = 4377
    Number of faces shared with processor 16 = 1512
    Number of faces shared with processor 52 = 5312
    Number of faces shared with processor 53 = 1
    Number of processor patches = 5
    Number of processor faces = 15600
    Number of boundary faces = 6720

Processor 5
    Number of cells = 179383
    Number of points = 190531
    Number of faces shared with processor 4 = 4377
    Number of faces shared with processor 6 = 4378
    Number of faces shared with processor 17 = 1439
    Number of faces shared with processor 53 = 5131
    Number of processor patches = 4
    Number of processor faces = 15325
    Number of boundary faces = 6563

Processor 6
    Number of cells = 183748
    Number of points = 195046
    Number of faces shared with processor 5 = 4378
    Number of faces shared with processor 7 = 4375
    Number of faces shared with processor 18 = 1470
    Number of faces shared with processor 54 = 5250
    Number of processor patches = 4
    Number of processor faces = 15473
    Number of boundary faces = 6717

Processor 7
    Number of cells = 183750
    Number of points = 195048
    Number of faces shared with processor 6 = 4375
    Number of faces shared with processor 8 = 4375
    Number of faces shared with processor 19 = 1470
    Number of faces shared with processor 55 = 5250
    Number of processor patches = 4
    Number of processor faces = 15470
    Number of boundary faces = 6720

Processor 8
    Number of cells = 179377
    Number of points = 190518
    Number of faces shared with processor 7 = 4375
    Number of faces shared with processor 9 = 4378
    Number of faces shared with processor 20 = 1435
    Number of faces shared with processor 56 = 5125
    Number of processor patches = 4
    Number of processor faces = 15313
    Number of boundary faces = 6563

Processor 9
    Number of cells = 183748
    Number of points = 195046
    Number of faces shared with processor 8 = 4378
    Number of faces shared with processor 10 = 4375
    Number of faces shared with processor 21 = 1470
    Number of faces shared with processor 57 = 5250
    Number of processor patches = 4
    Number of processor faces = 15473
    Number of boundary faces = 6717

Processor 10
    Number of cells = 183750
    Number of points = 195048
    Number of faces shared with processor 9 = 4375
    Number of faces shared with processor 11 = 4375
    Number of faces shared with processor 22 = 1470
    Number of faces shared with processor 58 = 5250
    Number of processor patches = 4
    Number of processor faces = 15470
    Number of boundary faces = 6720

Processor 11
    Number of cells = 179375
    Number of points = 190512
    Number of faces shared with processor 10 = 4375
    Number of faces shared with processor 23 = 1435
    Number of faces shared with processor 59 = 5125
    Number of processor patches = 3
    Number of processor faces = 10935
    Number of boundary faces = 10935

Processor 12
    Number of cells = 189000
    Number of points = 200466
    Number of faces shared with processor 0 = 1512
    Number of faces shared with processor 13 = 4500
    Number of faces shared with processor 24 = 1512
    Number of faces shared with processor 60 = 5250
    Number of processor patches = 4
    Number of processor faces = 12774
    Number of boundary faces = 9750

Processor 13
    Number of cells = 189000
    Number of points = 200466
    Number of faces shared with processor 1 = 1512
    Number of faces shared with processor 12 = 4500
    Number of faces shared with processor 14 = 4500
    Number of faces shared with processor 25 = 1512
    Number of faces shared with processor 61 = 5250
    Number of processor patches = 5
    Number of processor faces = 17274
    Number of boundary faces = 5250

Processor 14
    Number of cells = 184500
    Number of points = 195804
    Number of faces shared with processor 2 = 1476
    Number of faces shared with processor 13 = 4500
    Number of faces shared with processor 15 = 4500
    Number of faces shared with processor 26 = 1476
    Number of faces shared with processor 62 = 5125
    Number of processor patches = 5
    Number of processor faces = 17077
    Number of boundary faces = 5125

Processor 15
    Number of cells = 189000
    Number of points = 200466
    Number of faces shared with processor 3 = 1512
    Number of faces shared with processor 14 = 4500
    Number of faces shared with processor 16 = 4500
    Number of faces shared with processor 27 = 1512
    Number of faces shared with processor 63 = 5250
    Number of processor patches = 5
    Number of processor faces = 17274
    Number of boundary faces = 5250

Processor 16
    Number of cells = 189000
    Number of points = 200466
    Number of faces shared with processor 4 = 1512
    Number of faces shared with processor 15 = 4500
    Number of faces shared with processor 17 = 4500
    Number of faces shared with processor 28 = 1512
    Number of faces shared with processor 64 = 5250
    Number of processor patches = 5
    Number of processor faces = 17274
    Number of boundary faces = 5250

Processor 17
    Number of cells = 184176
    Number of points = 195480
    Number of faces shared with processor 5 = 1439
    Number of faces shared with processor 16 = 4500
    Number of faces shared with processor 18 = 4482
    Number of faces shared with processor 29 = 1476
    Number of faces shared with processor 53 = 2
    Number of faces shared with processor 65 = 5178
    Number of processor patches = 6
    Number of processor faces = 17077
    Number of boundary faces = 5125

Processor 18
    Number of cells = 187803
    Number of points = 199251
    Number of faces shared with processor 6 = 1470
    Number of faces shared with processor 17 = 4482
    Number of faces shared with processor 19 = 4461
    Number of faces shared with processor 30 = 1512
    Number of faces shared with processor 66 = 5313
    Number of processor patches = 5
    Number of processor faces = 17238
    Number of boundary faces = 5250

Processor 19
    Number of cells = 186921
    Number of points = 198348
    Number of faces shared with processor 7 = 1470
    Number of faces shared with processor 18 = 4461
    Number of faces shared with processor 20 = 4440
    Number of faces shared with processor 31 = 1512
    Number of faces shared with processor 67 = 5313
    Number of processor patches = 5
    Number of processor faces = 17196
    Number of boundary faces = 5250

Processor 20
    Number of cells = 181620
    Number of points = 192864
    Number of faces shared with processor 8 = 1435
    Number of faces shared with processor 19 = 4440
    Number of faces shared with processor 21 = 4419
    Number of faces shared with processor 32 = 1476
    Number of faces shared with processor 68 = 5186
    Number of faces shared with processor 69 = 1
    Number of processor patches = 6
    Number of processor faces = 16957
    Number of boundary faces = 5125

Processor 21
    Number of cells = 185178
    Number of points = 196563
    Number of faces shared with processor 9 = 1470
    Number of faces shared with processor 20 = 4419
    Number of faces shared with processor 22 = 4398
    Number of faces shared with processor 33 = 1512
    Number of faces shared with processor 69 = 5312
    Number of faces shared with processor 70 = 1
    Number of processor patches = 6
    Number of processor faces = 17112
    Number of boundary faces = 5250

Processor 22
    Number of cells = 184296
    Number of points = 195660
    Number of faces shared with processor 10 = 1470
    Number of faces shared with processor 21 = 4398
    Number of faces shared with processor 23 = 4377
    Number of faces shared with processor 34 = 1512
    Number of faces shared with processor 70 = 5312
    Number of faces shared with processor 71 = 1
    Number of processor patches = 6
    Number of processor faces = 17070
    Number of boundary faces = 5250

Processor 23
    Number of cells = 179381
    Number of points = 190525
    Number of faces shared with processor 11 = 1435
    Number of faces shared with processor 22 = 4377
    Number of faces shared with processor 35 = 1439
    Number of faces shared with processor 71 = 5131
    Number of processor patches = 4
    Number of processor faces = 12382
    Number of boundary faces = 9500

Processor 24
    Number of cells = 189000
    Number of points = 200466
    Number of faces shared with processor 12 = 1512
    Number of faces shared with processor 25 = 4500
    Number of faces shared with processor 36 = 1512
    Number of faces shared with processor 72 = 5250
    Number of processor patches = 4
    Number of processor faces = 12774
    Number of boundary faces = 9750

Processor 25
    Number of cells = 188997
    Number of points = 200463
    Number of faces shared with processor 13 = 1512
    Number of faces shared with processor 24 = 4500
    Number of faces shared with processor 26 = 4504
    Number of faces shared with processor 37 = 1509
    Number of faces shared with processor 38 = 1
    Number of faces shared with processor 73 = 5247
    Number of faces shared with processor 74 = 1
    Number of processor patches = 7
    Number of processor faces = 17274
    Number of boundary faces = 5250

Processor 26
    Number of cells = 184503
    Number of points = 195812
    Number of faces shared with processor 14 = 1476
    Number of faces shared with processor 25 = 4504
    Number of faces shared with processor 27 = 4500
    Number of faces shared with processor 38 = 1478
    Number of faces shared with processor 74 = 5127
    Number of processor patches = 5
    Number of processor faces = 17085
    Number of boundary faces = 5125

Processor 27
    Number of cells = 189000
    Number of points = 200466
    Number of faces shared with processor 15 = 1512
    Number of faces shared with processor 26 = 4500
    Number of faces shared with processor 28 = 4500
    Number of faces shared with processor 39 = 1512
    Number of faces shared with processor 75 = 5250
    Number of processor patches = 5
    Number of processor faces = 17274
    Number of boundary faces = 5250

Processor 28
    Number of cells = 188997
    Number of points = 200463
    Number of faces shared with processor 16 = 1512
    Number of faces shared with processor 27 = 4500
    Number of faces shared with processor 29 = 4504
    Number of faces shared with processor 40 = 1509
    Number of faces shared with processor 41 = 1
    Number of faces shared with processor 76 = 5247
    Number of faces shared with processor 77 = 1
    Number of processor patches = 7
    Number of processor faces = 17274
    Number of boundary faces = 5250

Processor 29
    Number of cells = 184503
    Number of points = 195812
    Number of faces shared with processor 17 = 1476
    Number of faces shared with processor 28 = 4504
    Number of faces shared with processor 30 = 4500
    Number of faces shared with processor 41 = 1478
    Number of faces shared with processor 77 = 5127
    Number of processor patches = 5
    Number of processor faces = 17085
    Number of boundary faces = 5125

Processor 30
    Number of cells = 189000
    Number of points = 200466
    Number of faces shared with processor 18 = 1512
    Number of faces shared with processor 29 = 4500
    Number of faces shared with processor 31 = 4500
    Number of faces shared with processor 42 = 1512
    Number of faces shared with processor 78 = 5250
    Number of processor patches = 5
    Number of processor faces = 17274
    Number of boundary faces = 5250

Processor 31
    Number of cells = 188997
    Number of points = 200463
    Number of faces shared with processor 19 = 1512
    Number of faces shared with processor 30 = 4500
    Number of faces shared with processor 32 = 4504
    Number of faces shared with processor 43 = 1509
    Number of faces shared with processor 44 = 1
    Number of faces shared with processor 79 = 5247
    Number of faces shared with processor 80 = 1
    Number of processor patches = 7
    Number of processor faces = 17274
    Number of boundary faces = 5250

Processor 32
    Number of cells = 184503
    Number of points = 195812
    Number of faces shared with processor 20 = 1476
    Number of faces shared with processor 31 = 4504
    Number of faces shared with processor 33 = 4500
    Number of faces shared with processor 44 = 1478
    Number of faces shared with processor 80 = 5127
    Number of processor patches = 5
    Number of processor faces = 17085
    Number of boundary faces = 5125

Processor 33
    Number of cells = 189000
    Number of points = 200466
    Number of faces shared with processor 21 = 1512
    Number of faces shared with processor 32 = 4500
    Number of faces shared with processor 34 = 4500
    Number of faces shared with processor 45 = 1512
    Number of faces shared with processor 81 = 5250
    Number of processor patches = 5
    Number of processor faces = 17274
    Number of boundary faces = 5250

Processor 34
    Number of cells = 188997
    Number of points = 200463
    Number of faces shared with processor 22 = 1512
    Number of faces shared with processor 33 = 4500
    Number of faces shared with processor 35 = 4504
    Number of faces shared with processor 46 = 1509
    Number of faces shared with processor 47 = 1
    Number of faces shared with processor 82 = 5247
    Number of faces shared with processor 83 = 1
    Number of processor patches = 7
    Number of processor faces = 17274
    Number of boundary faces = 5250

Processor 35
    Number of cells = 184179
    Number of points = 195488
    Number of faces shared with processor 23 = 1439
    Number of faces shared with processor 34 = 4504
    Number of faces shared with processor 47 = 1478
    Number of faces shared with processor 71 = 2
    Number of faces shared with processor 83 = 5180
    Number of processor patches = 5
    Number of processor faces = 12603
    Number of boundary faces = 9607

Processor 36
    Number of cells = 189000
    Number of points = 200466
    Number of faces shared with processor 24 = 1512
    Number of faces shared with processor 37 = 4500
    Number of faces shared with processor 84 = 5250
    Number of processor patches = 3
    Number of processor faces = 11262
    Number of boundary faces = 11262

Processor 37
    Number of cells = 185061
    Number of points = 196432
    Number of faces shared with processor 25 = 1509
    Number of faces shared with processor 36 = 4500
    Number of faces shared with processor 38 = 4566
    Number of faces shared with processor 85 = 5125
    Number of processor patches = 4
    Number of processor faces = 15700
    Number of boundary faces = 6634

Processor 38
    Number of cells = 188439
    Number of points = 199905
    Number of faces shared with processor 25 = 1
    Number of faces shared with processor 26 = 1478
    Number of faces shared with processor 37 = 4566
    Number of faces shared with processor 39 = 4500
    Number of faces shared with processor 86 = 5250
    Number of processor patches = 5
    Number of processor faces = 15795
    Number of boundary faces = 6729

Processor 39
    Number of cells = 189000
    Number of points = 200466
    Number of faces shared with processor 27 = 1512
    Number of faces shared with processor 38 = 4500
    Number of faces shared with processor 40 = 4500
    Number of faces shared with processor 87 = 5250
    Number of processor patches = 4
    Number of processor faces = 15762
    Number of boundary faces = 6762

Processor 40
    Number of cells = 185061
    Number of points = 196432
    Number of faces shared with processor 28 = 1509
    Number of faces shared with processor 39 = 4500
    Number of faces shared with processor 41 = 4566
    Number of faces shared with processor 88 = 5125
    Number of processor patches = 4
    Number of processor faces = 15700
    Number of boundary faces = 6634

Processor 41
    Number of cells = 188439
    Number of points = 199905
    Number of faces shared with processor 28 = 1
    Number of faces shared with processor 29 = 1478
    Number of faces shared with processor 40 = 4566
    Number of faces shared with processor 42 = 4500
    Number of faces shared with processor 89 = 5250
    Number of processor patches = 5
    Number of processor faces = 15795
    Number of boundary faces = 6729

Processor 42
    Number of cells = 189000
    Number of points = 200466
    Number of faces shared with processor 30 = 1512
    Number of faces shared with processor 41 = 4500
    Number of faces shared with processor 43 = 4500
    Number of faces shared with processor 90 = 5250
    Number of processor patches = 4
    Number of processor faces = 15762
    Number of boundary faces = 6762

Processor 43
    Number of cells = 185061
    Number of points = 196432
    Number of faces shared with processor 31 = 1509
    Number of faces shared with processor 42 = 4500
    Number of faces shared with processor 44 = 4566
    Number of faces shared with processor 91 = 5125
    Number of processor patches = 4
    Number of processor faces = 15700
    Number of boundary faces = 6634

Processor 44
    Number of cells = 188439
    Number of points = 199905
    Number of faces shared with processor 31 = 1
    Number of faces shared with processor 32 = 1478
    Number of faces shared with processor 43 = 4566
    Number of faces shared with processor 45 = 4500
    Number of faces shared with processor 92 = 5250
    Number of processor patches = 5
    Number of processor faces = 15795
    Number of boundary faces = 6729

Processor 45
    Number of cells = 189000
    Number of points = 200466
    Number of faces shared with processor 33 = 1512
    Number of faces shared with processor 44 = 4500
    Number of faces shared with processor 46 = 4500
    Number of faces shared with processor 93 = 5250
    Number of processor patches = 4
    Number of processor faces = 15762
    Number of boundary faces = 6762

Processor 46
    Number of cells = 185061
    Number of points = 196432
    Number of faces shared with processor 34 = 1509
    Number of faces shared with processor 45 = 4500
    Number of faces shared with processor 47 = 4566
    Number of faces shared with processor 94 = 5125
    Number of processor patches = 4
    Number of processor faces = 15700
    Number of boundary faces = 6634

Processor 47
    Number of cells = 188439
    Number of points = 199905
    Number of faces shared with processor 34 = 1
    Number of faces shared with processor 35 = 1478
    Number of faces shared with processor 46 = 4566
    Number of faces shared with processor 95 = 5250
    Number of processor patches = 4
    Number of processor faces = 11295
    Number of boundary faces = 11229

Processor 48
    Number of cells = 184926
    Number of points = 196305
    Number of faces shared with processor 0 = 5312
    Number of faces shared with processor 49 = 4413
    Number of faces shared with processor 60 = 1470
    Number of faces shared with processor 96 = 5250
    Number of processor patches = 4
    Number of processor faces = 16445
    Number of boundary faces = 5905

Processor 49
    Number of cells = 185808
    Number of points = 197208
    Number of faces shared with processor 0 = 1
    Number of faces shared with processor 1 = 5312
    Number of faces shared with processor 48 = 4413
    Number of faces shared with processor 50 = 4434
    Number of faces shared with processor 61 = 1470
    Number of faces shared with processor 97 = 5250
    Number of processor patches = 6
    Number of processor faces = 20880
    Number of boundary faces = 1512

Processor 50
    Number of cells = 182235
    Number of points = 193494
    Number of faces shared with processor 1 = 1
    Number of faces shared with processor 2 = 5186
    Number of faces shared with processor 49 = 4434
    Number of faces shared with processor 51 = 4455
    Number of faces shared with processor 62 = 1435
    Number of faces shared with processor 98 = 5125
    Number of processor patches = 6
    Number of processor faces = 20636
    Number of boundary faces = 1476

Processor 51
    Number of cells = 187562
    Number of points = 199004
    Number of faces shared with processor 3 = 5313
    Number of faces shared with processor 50 = 4455
    Number of faces shared with processor 52 = 4476
    Number of faces shared with processor 63 = 1470
    Number of faces shared with processor 99 = 5250
    Number of processor patches = 5
    Number of processor faces = 20964
    Number of boundary faces = 1512

Processor 52
    Number of cells = 188454
    Number of points = 199917
    Number of faces shared with processor 3 = 1
    Number of faces shared with processor 4 = 5312
    Number of faces shared with processor 51 = 4476
    Number of faces shared with processor 53 = 4497
    Number of faces shared with processor 64 = 1470
    Number of faces shared with processor 100 = 5250
    Number of processor patches = 6
    Number of processor faces = 21006
    Number of boundary faces = 1512

Processor 53
    Number of cells = 184494
    Number of points = 195798
    Number of faces shared with processor 4 = 1
    Number of faces shared with processor 5 = 5131
    Number of faces shared with processor 17 = 2
    Number of faces shared with processor 52 = 4497
    Number of faces shared with processor 54 = 4500
    Number of faces shared with processor 65 = 1470
    Number of faces shared with processor 101 = 5125
    Number of processor patches = 7
    Number of processor faces = 20726
    Number of boundary faces = 1476

Processor 54
    Number of cells = 189000
    Number of points = 200466
    Number of faces shared with processor 6 = 5250
    Number of faces shared with processor 53 = 4500
    Number of faces shared with processor 55 = 4500
    Number of faces shared with processor 66 = 1512
    Number of faces shared with processor 102 = 5250
    Number of processor patches = 5
    Number of processor faces = 21012
    Number of boundary faces = 1512

Processor 55
    Number of cells = 189000
    Number of points = 200466
    Number of faces shared with processor 7 = 5250
    Number of faces shared with processor 54 = 4500
    Number of faces shared with processor 56 = 4500
    Number of faces shared with processor 67 = 1512
    Number of faces shared with processor 103 = 5250
    Number of processor patches = 5
    Number of processor faces = 21012
    Number of boundary faces = 1512

Processor 56
    Number of cells = 184500
    Number of points = 195804
    Number of faces shared with processor 8 = 5125
    Number of faces shared with processor 55 = 4500
    Number of faces shared with processor 57 = 4500
    Number of faces shared with processor 68 = 1476
    Number of faces shared with processor 104 = 5125
    Number of processor patches = 5
    Number of processor faces = 20726
    Number of boundary faces = 1476

Processor 57
    Number of cells = 189000
    Number of points = 200466
    Number of faces shared with processor 9 = 5250
    Number of faces shared with processor 56 = 4500
    Number of faces shared with processor 58 = 4500
    Number of faces shared with processor 69 = 1512
    Number of faces shared with processor 105 = 5250
    Number of processor patches = 5
    Number of processor faces = 21012
    Number of boundary faces = 1512

Processor 58
    Number of cells = 189000
    Number of points = 200466
    Number of faces shared with processor 10 = 5250
    Number of faces shared with processor 57 = 4500
    Number of faces shared with processor 59 = 4500
    Number of faces shared with processor 70 = 1512
    Number of faces shared with processor 106 = 5250
    Number of processor patches = 5
    Number of processor faces = 21012
    Number of boundary faces = 1512

Processor 59
    Number of cells = 184500
    Number of points = 195804
    Number of faces shared with processor 11 = 5125
    Number of faces shared with processor 58 = 4500
    Number of faces shared with processor 71 = 1476
    Number of faces shared with processor 107 = 5125
    Number of processor patches = 4
    Number of processor faces = 16226
    Number of boundary faces = 5976

Processor 60
    Number of cells = 187068
    Number of points = 198498
    Number of faces shared with processor 12 = 5250
    Number of faces shared with processor 48 = 1470
    Number of faces shared with processor 61 = 4443
    Number of faces shared with processor 72 = 1512
    Number of faces shared with processor 108 = 5312
    Number of faces shared with processor 109 = 1
    Number of processor patches = 6
    Number of processor faces = 17988
    Number of boundary faces = 4464

Processor 61
    Number of cells = 186186
    Number of points = 197595
    Number of faces shared with processor 13 = 5250
    Number of faces shared with processor 49 = 1470
    Number of faces shared with processor 60 = 4443
    Number of faces shared with processor 62 = 4422
    Number of faces shared with processor 73 = 1512
    Number of faces shared with processor 109 = 5312
    Number of faces shared with processor 110 = 1
    Number of processor patches = 7
    Number of processor faces = 22410
    Number of boundary faces = 0

Processor 62
    Number of cells = 180902
    Number of points = 192128
    Number of faces shared with processor 14 = 5125
    Number of faces shared with processor 50 = 1435
    Number of faces shared with processor 61 = 4422
    Number of faces shared with processor 63 = 4402
    Number of faces shared with processor 74 = 1476
    Number of faces shared with processor 110 = 5186
    Number of processor patches = 6
    Number of processor faces = 22046
    Number of boundary faces = 0

Processor 63
    Number of cells = 184443
    Number of points = 195811
    Number of faces shared with processor 15 = 5250
    Number of faces shared with processor 51 = 1470
    Number of faces shared with processor 62 = 4402
    Number of faces shared with processor 64 = 4381
    Number of faces shared with processor 75 = 1512
    Number of faces shared with processor 111 = 5313
    Number of processor patches = 6
    Number of processor faces = 22328
    Number of boundary faces = 0

Processor 64
    Number of cells = 183786
    Number of points = 195102
    Number of faces shared with processor 16 = 5250
    Number of faces shared with processor 52 = 1470
    Number of faces shared with processor 63 = 4381
    Number of faces shared with processor 65 = 4375
    Number of faces shared with processor 76 = 1481
    Number of faces shared with processor 112 = 5267
    Number of processor patches = 6
    Number of processor faces = 22224
    Number of boundary faces = 0

Processor 65
    Number of cells = 179699
    Number of points = 190890
    Number of faces shared with processor 17 = 5178
    Number of faces shared with processor 53 = 1470
    Number of faces shared with processor 64 = 4375
    Number of faces shared with processor 66 = 4393
    Number of faces shared with processor 77 = 1435
    Number of faces shared with processor 113 = 5125
    Number of processor patches = 6
    Number of processor faces = 21976
    Number of boundary faces = 0

Processor 66
    Number of cells = 184947
    Number of points = 196327
    Number of faces shared with processor 18 = 5313
    Number of faces shared with processor 54 = 1512
    Number of faces shared with processor 65 = 4393
    Number of faces shared with processor 67 = 4414
    Number of faces shared with processor 78 = 1470
    Number of faces shared with processor 114 = 5250
    Number of processor patches = 6
    Number of processor faces = 22352
    Number of boundary faces = 0

Processor 67
    Number of cells = 185829
    Number of points = 197230
    Number of faces shared with processor 19 = 5313
    Number of faces shared with processor 55 = 1512
    Number of faces shared with processor 66 = 4414
    Number of faces shared with processor 68 = 4435
    Number of faces shared with processor 79 = 1470
    Number of faces shared with processor 115 = 5250
    Number of processor patches = 6
    Number of processor faces = 22394
    Number of boundary faces = 0

Processor 68
    Number of cells = 182255
    Number of points = 193514
    Number of faces shared with processor 20 = 5186
    Number of faces shared with processor 56 = 1476
    Number of faces shared with processor 67 = 4435
    Number of faces shared with processor 69 = 4455
    Number of faces shared with processor 80 = 1435
    Number of faces shared with processor 116 = 5125
    Number of processor patches = 6
    Number of processor faces = 22112
    Number of boundary faces = 0

Processor 69
    Number of cells = 187572
    Number of points = 199014
    Number of faces shared with processor 20 = 1
    Number of faces shared with processor 21 = 5312
    Number of faces shared with processor 57 = 1512
    Number of faces shared with processor 68 = 4455
    Number of faces shared with processor 70 = 4476
    Number of faces shared with processor 81 = 1470
    Number of faces shared with processor 117 = 5250
    Number of processor patches = 7
    Number of processor faces = 22476
    Number of boundary faces = 0

Processor 70
    Number of cells = 188454
    Number of points = 199917
    Number of faces shared with processor 21 = 1
    Number of faces shared with processor 22 = 5312
    Number of faces shared with processor 58 = 1512
    Number of faces shared with processor 69 = 4476
    Number of faces shared with processor 71 = 4497
    Number of faces shared with processor 82 = 1470
    Number of faces shared with processor 118 = 5250
    Number of processor patches = 7
    Number of processor faces = 22518
    Number of boundary faces = 0

Processor 71
    Number of cells = 184494
    Number of points = 195798
    Number of faces shared with processor 22 = 1
    Number of faces shared with processor 23 = 5131
    Number of faces shared with processor 35 = 2
    Number of faces shared with processor 59 = 1476
    Number of faces shared with processor 70 = 4497
    Number of faces shared with processor 83 = 1470
    Number of faces shared with processor 119 = 5125
    Number of processor patches = 7
    Number of processor faces = 17702
    Number of boundary faces = 4500

Processor 72
    Number of cells = 189000
    Number of points = 200466
    Number of faces shared with processor 24 = 5250
    Number of faces shared with processor 60 = 1512
    Number of faces shared with processor 73 = 4500
    Number of faces shared with processor 84 = 1512
    Number of faces shared with processor 120 = 5250
    Number of processor patches = 5
    Number of processor faces = 18024
    Number of boundary faces = 4500

Processor 73
    Number of cells = 188262
    Number of points = 199725
    Number of faces shared with processor 25 = 5247
    Number of faces shared with processor 61 = 1512
    Number of faces shared with processor 72 = 4500
    Number of faces shared with processor 74 = 4571
    Number of faces shared with processor 85 = 1476
    Number of faces shared with processor 121 = 5211
    Number of faces shared with processor 122 = 1
    Number of processor patches = 7
    Number of processor faces = 22518
    Number of boundary faces = 0

Processor 74
    Number of cells = 185238
    Number of points = 196617
    Number of faces shared with processor 25 = 1
    Number of faces shared with processor 26 = 5127
    Number of faces shared with processor 62 = 1476
    Number of faces shared with processor 73 = 4571
    Number of faces shared with processor 75 = 4500
    Number of faces shared with processor 86 = 1512
    Number of faces shared with processor 122 = 5163
    Number of processor patches = 7
    Number of processor faces = 22350
    Number of boundary faces = 0

Processor 75
    Number of cells = 189000
    Number of points = 200466
    Number of faces shared with processor 27 = 5250
    Number of faces shared with processor 63 = 1512
    Number of faces shared with processor 74 = 4500
    Number of faces shared with processor 76 = 4500
    Number of faces shared with processor 87 = 1512
    Number of faces shared with processor 123 = 5250
    Number of processor patches = 6
    Number of processor faces = 22524
    Number of boundary faces = 0

Processor 76
    Number of cells = 188037
    Number of points = 199500
    Number of faces shared with processor 28 = 5247
    Number of faces shared with processor 64 = 1481
    Number of faces shared with processor 75 = 4500
    Number of faces shared with processor 77 = 4556
    Number of faces shared with processor 88 = 1476
    Number of faces shared with processor 112 = 2
    Number of faces shared with processor 124 = 5255
    Number of faces shared with processor 125 = 1
    Number of processor patches = 8
    Number of processor faces = 22518
    Number of boundary faces = 0

Processor 77
    Number of cells = 184203
    Number of points = 195567
    Number of faces shared with processor 28 = 1
    Number of faces shared with processor 29 = 5127
    Number of faces shared with processor 65 = 1435
    Number of faces shared with processor 76 = 4556
    Number of faces shared with processor 78 = 4464
    Number of faces shared with processor 89 = 1512
    Number of faces shared with processor 125 = 5224
    Number of faces shared with processor 126 = 1
    Number of processor patches = 8
    Number of processor faces = 22320
    Number of boundary faces = 0

Processor 78
    Number of cells = 187066
    Number of points = 198496
    Number of faces shared with processor 30 = 5250
    Number of faces shared with processor 66 = 1470
    Number of faces shared with processor 77 = 4464
    Number of faces shared with processor 79 = 4443
    Number of faces shared with processor 90 = 1512
    Number of faces shared with processor 126 = 5313
    Number of processor patches = 6
    Number of processor faces = 22452
    Number of boundary faces = 0

Processor 79
    Number of cells = 185427
    Number of points = 196833
    Number of faces shared with processor 128 = 1
    Number of faces shared with processor 31 = 5247
    Number of faces shared with processor 67 = 1470
    Number of faces shared with processor 78 = 4443
    Number of faces shared with processor 80 = 4493
    Number of faces shared with processor 91 = 1476
    Number of faces shared with processor 127 = 5274
    Number of processor patches = 7
    Number of processor faces = 22404
    Number of boundary faces = 0

Processor 80
    Number of cells = 181620
    Number of points = 192921
    Number of faces shared with processor 128 = 5224
    Number of faces shared with processor 129 = 1
    Number of faces shared with processor 31 = 1
    Number of faces shared with processor 32 = 5127
    Number of faces shared with processor 68 = 1435
    Number of faces shared with processor 79 = 4493
    Number of faces shared with processor 81 = 4401
    Number of faces shared with processor 92 = 1512
    Number of processor patches = 8
    Number of processor faces = 22194
    Number of boundary faces = 0

Processor 81
    Number of cells = 184422
    Number of points = 195789
    Number of faces shared with processor 129 = 5312
    Number of faces shared with processor 130 = 1
    Number of faces shared with processor 33 = 5250
    Number of faces shared with processor 69 = 1470
    Number of faces shared with processor 80 = 4401
    Number of faces shared with processor 82 = 4380
    Number of faces shared with processor 93 = 1512
    Number of processor patches = 7
    Number of processor faces = 22326
    Number of boundary faces = 0

Processor 82
    Number of cells = 183080
    Number of points = 194391
    Number of faces shared with processor 130 = 5227
    Number of faces shared with processor 131 = 1
    Number of faces shared with processor 34 = 5247
    Number of faces shared with processor 70 = 1470
    Number of faces shared with processor 81 = 4380
    Number of faces shared with processor 83 = 4444
    Number of faces shared with processor 94 = 1445
    Number of processor patches = 7
    Number of processor faces = 22214
    Number of boundary faces = 0

Processor 83
    Number of cells = 180399
    Number of points = 191663
    Number of faces shared with processor 131 = 5162
    Number of faces shared with processor 34 = 1
    Number of faces shared with processor 35 = 5180
    Number of faces shared with processor 71 = 1470
    Number of faces shared with processor 82 = 4444
    Number of faces shared with processor 95 = 1470
    Number of processor patches = 6
    Number of processor faces = 17727
    Number of boundary faces = 4393

Processor 84
    Number of cells = 189000
    Number of points = 200466
    Number of faces shared with processor 132 = 5250
    Number of faces shared with processor 36 = 5250
    Number of faces shared with processor 72 = 1512
    Number of faces shared with processor 85 = 4500
    Number of processor patches = 4
    Number of processor faces = 16512
    Number of boundary faces = 6012

Processor 85
    Number of cells = 184500
    Number of points = 195804
    Number of faces shared with processor 133 = 5125
    Number of faces shared with processor 37 = 5125
    Number of faces shared with processor 73 = 1476
    Number of faces shared with processor 84 = 4500
    Number of faces shared with processor 86 = 4500
    Number of processor patches = 5
    Number of processor faces = 20726
    Number of boundary faces = 1476

Processor 86
    Number of cells = 189000
    Number of points = 200466
    Number of faces shared with processor 134 = 5250
    Number of faces shared with processor 38 = 5250
    Number of faces shared with processor 74 = 1512
    Number of faces shared with processor 85 = 4500
    Number of faces shared with processor 87 = 4500
    Number of processor patches = 5
    Number of processor faces = 21012
    Number of boundary faces = 1512

Processor 87
    Number of cells = 189000
    Number of points = 200466
    Number of faces shared with processor 135 = 5250
    Number of faces shared with processor 39 = 5250
    Number of faces shared with processor 75 = 1512
    Number of faces shared with processor 86 = 4500
    Number of faces shared with processor 88 = 4500
    Number of processor patches = 5
    Number of processor faces = 21012
    Number of boundary faces = 1512

Processor 88
    Number of cells = 184500
    Number of points = 195804
    Number of faces shared with processor 136 = 5125
    Number of faces shared with processor 40 = 5125
    Number of faces shared with processor 76 = 1476
    Number of faces shared with processor 87 = 4500
    Number of faces shared with processor 89 = 4500
    Number of processor patches = 5
    Number of processor faces = 20726
    Number of boundary faces = 1476

Processor 89
    Number of cells = 189000
    Number of points = 200466
    Number of faces shared with processor 137 = 5250
    Number of faces shared with processor 41 = 5250
    Number of faces shared with processor 77 = 1512
    Number of faces shared with processor 88 = 4500
    Number of faces shared with processor 90 = 4500
    Number of processor patches = 5
    Number of processor faces = 21012
    Number of boundary faces = 1512

Processor 90
    Number of cells = 189000
    Number of points = 200466
    Number of faces shared with processor 138 = 5250
    Number of faces shared with processor 42 = 5250
    Number of faces shared with processor 78 = 1512
    Number of faces shared with processor 89 = 4500
    Number of faces shared with processor 91 = 4500
    Number of processor patches = 5
    Number of processor faces = 21012
    Number of boundary faces = 1512

Processor 91
    Number of cells = 184500
    Number of points = 195804
    Number of faces shared with processor 139 = 5125
    Number of faces shared with processor 43 = 5125
    Number of faces shared with processor 79 = 1476
    Number of faces shared with processor 90 = 4500
    Number of faces shared with processor 92 = 4500
    Number of processor patches = 5
    Number of processor faces = 20726
    Number of boundary faces = 1476

Processor 92
    Number of cells = 189000
    Number of points = 200466
    Number of faces shared with processor 140 = 5250
    Number of faces shared with processor 44 = 5250
    Number of faces shared with processor 80 = 1512
    Number of faces shared with processor 91 = 4500
    Number of faces shared with processor 93 = 4500
    Number of processor patches = 5
    Number of processor faces = 21012
    Number of boundary faces = 1512

Processor 93
    Number of cells = 189000
    Number of points = 200466
    Number of faces shared with processor 141 = 5250
    Number of faces shared with processor 45 = 5250
    Number of faces shared with processor 81 = 1512
    Number of faces shared with processor 92 = 4500
    Number of faces shared with processor 94 = 4500
    Number of processor patches = 5
    Number of processor faces = 21012
    Number of boundary faces = 1512

Processor 94
    Number of cells = 184275
    Number of points = 195579
    Number of faces shared with processor 130 = 2
    Number of faces shared with processor 142 = 5169
    Number of faces shared with processor 46 = 5125
    Number of faces shared with processor 82 = 1445
    Number of faces shared with processor 93 = 4500
    Number of faces shared with processor 95 = 4485
    Number of processor patches = 6
    Number of processor faces = 20726
    Number of boundary faces = 1476

Processor 95
    Number of cells = 187929
    Number of points = 199380
    Number of faces shared with processor 143 = 5313
    Number of faces shared with processor 47 = 5250
    Number of faces shared with processor 83 = 1470
    Number of faces shared with processor 94 = 4485
    Number of processor patches = 4
    Number of processor faces = 16518
    Number of boundary faces = 5976

Processor 96
    Number of cells = 189000
    Number of points = 200466
    Number of faces shared with processor 144 = 5250
    Number of faces shared with processor 48 = 5250
    Number of faces shared with processor 97 = 4500
    Number of faces shared with processor 108 = 1512
    Number of processor patches = 4
    Number of processor faces = 16512
    Number of boundary faces = 6012

Processor 97
    Number of cells = 189000
    Number of points = 200466
    Number of faces shared with processor 145 = 5250
    Number of faces shared with processor 49 = 5250
    Number of faces shared with processor 96 = 4500
    Number of faces shared with processor 98 = 4500
    Number of faces shared with processor 109 = 1512
    Number of processor patches = 5
    Number of processor faces = 21012
    Number of boundary faces = 1512

Processor 98
    Number of cells = 184500
    Number of points = 195804
    Number of faces shared with processor 146 = 5125
    Number of faces shared with processor 50 = 5125
    Number of faces shared with processor 97 = 4500
    Number of faces shared with processor 99 = 4500
    Number of faces shared with processor 110 = 1476
    Number of processor patches = 5
    Number of processor faces = 20726
    Number of boundary faces = 1476

Processor 99
    Number of cells = 189000
    Number of points = 200466
    Number of faces shared with processor 147 = 5250
    Number of faces shared with processor 51 = 5250
    Number of faces shared with processor 98 = 4500
    Number of faces shared with processor 100 = 4500
    Number of faces shared with processor 111 = 1512
    Number of processor patches = 5
    Number of processor faces = 21012
    Number of boundary faces = 1512

Processor 100
    Number of cells = 189000
    Number of points = 200466
    Number of faces shared with processor 148 = 5250
    Number of faces shared with processor 52 = 5250
    Number of faces shared with processor 99 = 4500
    Number of faces shared with processor 101 = 4500
    Number of faces shared with processor 112 = 1512
    Number of processor patches = 5
    Number of processor faces = 21012
    Number of boundary faces = 1512

Processor 101
    Number of cells = 184500
    Number of points = 195804
    Number of faces shared with processor 149 = 5125
    Number of faces shared with processor 53 = 5125
    Number of faces shared with processor 100 = 4500
    Number of faces shared with processor 102 = 4500
    Number of faces shared with processor 113 = 1476
    Number of processor patches = 5
    Number of processor faces = 20726
    Number of boundary faces = 1476

Processor 102
    Number of cells = 189000
    Number of points = 200466
    Number of faces shared with processor 150 = 5250
    Number of faces shared with processor 54 = 5250
    Number of faces shared with processor 101 = 4500
    Number of faces shared with processor 103 = 4500
    Number of faces shared with processor 114 = 1512
    Number of processor patches = 5
    Number of processor faces = 21012
    Number of boundary faces = 1512

Processor 103
    Number of cells = 189000
    Number of points = 200466
    Number of faces shared with processor 151 = 5250
    Number of faces shared with processor 55 = 5250
    Number of faces shared with processor 102 = 4500
    Number of faces shared with processor 104 = 4500
    Number of faces shared with processor 115 = 1512
    Number of processor patches = 5
    Number of processor faces = 21012
    Number of boundary faces = 1512

Processor 104
    Number of cells = 184500
    Number of points = 195804
    Number of faces shared with processor 152 = 5125
    Number of faces shared with processor 56 = 5125
    Number of faces shared with processor 103 = 4500
    Number of faces shared with processor 105 = 4500
    Number of faces shared with processor 116 = 1476
    Number of processor patches = 5
    Number of processor faces = 20726
    Number of boundary faces = 1476

Processor 105
    Number of cells = 188856
    Number of points = 200322
    Number of faces shared with processor 153 = 5285
    Number of faces shared with processor 57 = 5250
    Number of faces shared with processor 104 = 4500
    Number of faces shared with processor 106 = 4488
    Number of faces shared with processor 117 = 1512
    Number of processor patches = 5
    Number of processor faces = 21035
    Number of boundary faces = 1489

Processor 106
    Number of cells = 188042
    Number of points = 199496
    Number of faces shared with processor 154 = 5313
    Number of faces shared with processor 155 = 1
    Number of faces shared with processor 58 = 5250
    Number of faces shared with processor 105 = 4488
    Number of faces shared with processor 107 = 4466
    Number of faces shared with processor 118 = 1512
    Number of processor patches = 6
    Number of processor faces = 21030
    Number of boundary faces = 1470

Processor 107
    Number of cells = 182706
    Number of points = 193976
    Number of faces shared with processor 155 = 5186
    Number of faces shared with processor 59 = 5125
    Number of faces shared with processor 106 = 4466
    Number of faces shared with processor 119 = 1476
    Number of processor patches = 4
    Number of processor faces = 16253
    Number of boundary faces = 5881

Processor 108
    Number of cells = 185682
    Number of points = 197079
    Number of faces shared with processor 156 = 5250
    Number of faces shared with processor 60 = 5312
    Number of faces shared with processor 96 = 1512
    Number of faces shared with processor 109 = 4431
    Number of faces shared with processor 120 = 1470
    Number of processor patches = 5
    Number of processor faces = 17975
    Number of boundary faces = 4411

Processor 109
    Number of cells = 186564
    Number of points = 197982
    Number of faces shared with processor 157 = 5250
    Number of faces shared with processor 60 = 1
    Number of faces shared with processor 61 = 5312
    Number of faces shared with processor 97 = 1512
    Number of faces shared with processor 108 = 4431
    Number of faces shared with processor 110 = 4452
    Number of faces shared with processor 121 = 1470
    Number of processor patches = 7
    Number of processor faces = 22428
    Number of boundary faces = 0

Processor 110
    Number of cells = 182973
    Number of points = 194250
    Number of faces shared with processor 158 = 5125
    Number of faces shared with processor 61 = 1
    Number of faces shared with processor 62 = 5186
    Number of faces shared with processor 98 = 1476
    Number of faces shared with processor 109 = 4452
    Number of faces shared with processor 111 = 4473
    Number of faces shared with processor 122 = 1435
    Number of processor patches = 7
    Number of processor faces = 22148
    Number of boundary faces = 0

Processor 111
    Number of cells = 188307
    Number of points = 199767
    Number of faces shared with processor 159 = 5250
    Number of faces shared with processor 63 = 5313
    Number of faces shared with processor 99 = 1512
    Number of faces shared with processor 110 = 4473
    Number of faces shared with processor 112 = 4494
    Number of faces shared with processor 123 = 1470
    Number of processor patches = 6
    Number of processor faces = 22512
    Number of boundary faces = 0

Processor 112
    Number of cells = 188964
    Number of points = 200430
    Number of faces shared with processor 160 = 5250
    Number of faces shared with processor 64 = 5267
    Number of faces shared with processor 76 = 2
    Number of faces shared with processor 100 = 1512
    Number of faces shared with processor 111 = 4494
    Number of faces shared with processor 113 = 4500
    Number of faces shared with processor 124 = 1499
    Number of processor patches = 7
    Number of processor faces = 22524
    Number of boundary faces = 0

Processor 113
    Number of cells = 184500
    Number of points = 195804
    Number of faces shared with processor 161 = 5125
    Number of faces shared with processor 65 = 5125
    Number of faces shared with processor 101 = 1476
    Number of faces shared with processor 112 = 4500
    Number of faces shared with processor 114 = 4500
    Number of faces shared with processor 125 = 1476
    Number of processor patches = 6
    Number of processor faces = 22202
    Number of boundary faces = 0

Processor 114
    Number of cells = 189000
    Number of points = 200466
    Number of faces shared with processor 162 = 5250
    Number of faces shared with processor 66 = 5250
    Number of faces shared with processor 102 = 1512
    Number of faces shared with processor 113 = 4500
    Number of faces shared with processor 115 = 4500
    Number of faces shared with processor 126 = 1512
    Number of processor patches = 6
    Number of processor faces = 22524
    Number of boundary faces = 0

Processor 115
    Number of cells = 189000
    Number of points = 200466
    Number of faces shared with processor 163 = 5250
    Number of faces shared with processor 67 = 5250
    Number of faces shared with processor 103 = 1512
    Number of faces shared with processor 114 = 4500
    Number of faces shared with processor 116 = 4500
    Number of faces shared with processor 127 = 1512
    Number of processor patches = 6
    Number of processor faces = 22524
    Number of boundary faces = 0

Processor 116
    Number of cells = 184500
    Number of points = 195804
    Number of faces shared with processor 128 = 1476
    Number of faces shared with processor 164 = 5125
    Number of faces shared with processor 68 = 5125
    Number of faces shared with processor 104 = 1476
    Number of faces shared with processor 115 = 4500
    Number of faces shared with processor 117 = 4500
    Number of processor patches = 6
    Number of processor faces = 22202
    Number of boundary faces = 0

Processor 117
    Number of cells = 189000
    Number of points = 200466
    Number of faces shared with processor 129 = 1512
    Number of faces shared with processor 165 = 5250
    Number of faces shared with processor 69 = 5250
    Number of faces shared with processor 105 = 1512
    Number of faces shared with processor 116 = 4500
    Number of faces shared with processor 118 = 4500
    Number of processor patches = 6
    Number of processor faces = 22524
    Number of boundary faces = 0

Processor 118
    Number of cells = 189000
    Number of points = 200466
    Number of faces shared with processor 130 = 1512
    Number of faces shared with processor 166 = 5250
    Number of faces shared with processor 70 = 5250
    Number of faces shared with processor 106 = 1512
    Number of faces shared with processor 117 = 4500
    Number of faces shared with processor 119 = 4500
    Number of processor patches = 6
    Number of processor faces = 22524
    Number of boundary faces = 0

Processor 119
    Number of cells = 184500
    Number of points = 195804
    Number of faces shared with processor 131 = 1476
    Number of faces shared with processor 167 = 5125
    Number of faces shared with processor 71 = 5125
    Number of faces shared with processor 107 = 1476
    Number of faces shared with processor 118 = 4500
    Number of processor patches = 5
    Number of processor faces = 17702
    Number of boundary faces = 4500

Processor 120
    Number of cells = 186312
    Number of points = 197724
    Number of faces shared with processor 132 = 1512
    Number of faces shared with processor 168 = 5312
    Number of faces shared with processor 169 = 1
    Number of faces shared with processor 72 = 5250
    Number of faces shared with processor 108 = 1470
    Number of faces shared with processor 121 = 4425
    Number of processor patches = 6
    Number of processor faces = 17970
    Number of boundary faces = 4446

Processor 121
    Number of cells = 183440
    Number of points = 194791
    Number of faces shared with processor 133 = 1476
    Number of faces shared with processor 169 = 5237
    Number of faces shared with processor 170 = 1
    Number of faces shared with processor 73 = 5211
    Number of faces shared with processor 109 = 1470
    Number of faces shared with processor 120 = 4425
    Number of faces shared with processor 122 = 4474
    Number of processor patches = 7
    Number of processor faces = 22294
    Number of boundary faces = 0

Processor 122
    Number of cells = 182154
    Number of points = 193473
    Number of faces shared with processor 134 = 1512
    Number of faces shared with processor 170 = 5261
    Number of faces shared with processor 73 = 1
    Number of faces shared with processor 74 = 5163
    Number of faces shared with processor 110 = 1435
    Number of faces shared with processor 121 = 4474
    Number of faces shared with processor 123 = 4384
    Number of processor patches = 7
    Number of processor faces = 22230
    Number of boundary faces = 0

Processor 123
    Number of cells = 183831
    Number of points = 195156
    Number of faces shared with processor 135 = 1487
    Number of faces shared with processor 171 = 5276
    Number of faces shared with processor 75 = 5250
    Number of faces shared with processor 111 = 1470
    Number of faces shared with processor 122 = 4384
    Number of faces shared with processor 124 = 4375
    Number of processor patches = 6
    Number of processor faces = 22242
    Number of boundary faces = 0

Processor 124
    Number of cells = 182015
    Number of points = 193319
    Number of faces shared with processor 136 = 1435
    Number of faces shared with processor 172 = 5176
    Number of faces shared with processor 173 = 1
    Number of faces shared with processor 76 = 5255
    Number of faces shared with processor 112 = 1499
    Number of faces shared with processor 123 = 4375
    Number of faces shared with processor 125 = 4459
    Number of processor patches = 7
    Number of processor faces = 22200
    Number of boundary faces = 0

Processor 125
    Number of cells = 182370
    Number of points = 193693
    Number of faces shared with processor 137 = 1470
    Number of faces shared with processor 173 = 5198
    Number of faces shared with processor 76 = 1
    Number of faces shared with processor 77 = 5224
    Number of faces shared with processor 113 = 1476
    Number of faces shared with processor 124 = 4459
    Number of faces shared with processor 126 = 4410
    Number of processor patches = 7
    Number of processor faces = 22238
    Number of boundary faces = 0

Processor 126
    Number of cells = 185684
    Number of points = 197082
    Number of faces shared with processor 138 = 1470
    Number of faces shared with processor 174 = 5250
    Number of faces shared with processor 77 = 1
    Number of faces shared with processor 78 = 5313
    Number of faces shared with processor 114 = 1512
    Number of faces shared with processor 125 = 4410
    Number of faces shared with processor 127 = 4432
    Number of processor patches = 7
    Number of processor faces = 22388
    Number of boundary faces = 0

Processor 127
    Number of cells = 184625
    Number of points = 196005
    Number of faces shared with processor 128 = 4522
    Number of faces shared with processor 139 = 1435
    Number of faces shared with processor 175 = 5176
    Number of faces shared with processor 176 = 1
    Number of faces shared with processor 79 = 5274
    Number of faces shared with processor 115 = 1512
    Number of faces shared with processor 126 = 4432
    Number of processor patches = 7
    Number of processor faces = 22352
    Number of boundary faces = 0

Processor 128
    Number of cells = 184953
    Number of points = 196339
    Number of faces shared with processor 129 = 4473
    Number of faces shared with processor 140 = 1470
    Number of faces shared with processor 176 = 5198
    Number of faces shared with processor 79 = 1
    Number of faces shared with processor 80 = 5224
    Number of faces shared with processor 116 = 1476
    Number of faces shared with processor 127 = 4522
    Number of processor patches = 7
    Number of processor faces = 22364
    Number of boundary faces = 0

Processor 129
    Number of cells = 188328
    Number of points = 199788
    Number of faces shared with processor 128 = 4473
    Number of faces shared with processor 130 = 4494
    Number of faces shared with processor 141 = 1470
    Number of faces shared with processor 177 = 5250
    Number of faces shared with processor 80 = 1
    Number of faces shared with processor 81 = 5312
    Number of faces shared with processor 117 = 1512
    Number of processor patches = 7
    Number of processor faces = 22512
    Number of boundary faces = 0

Processor 130
    Number of cells = 186972
    Number of points = 198400
    Number of faces shared with processor 129 = 4494
    Number of faces shared with processor 131 = 4571
    Number of faces shared with processor 142 = 1464
    Number of faces shared with processor 178 = 5176
    Number of faces shared with processor 179 = 1
    Number of faces shared with processor 81 = 1
    Number of faces shared with processor 82 = 5227
    Number of faces shared with processor 94 = 2
    Number of faces shared with processor 118 = 1512
    Number of processor patches = 9
    Number of processor faces = 22448
    Number of boundary faces = 0

Processor 131
    Number of cells = 186498
    Number of points = 197912
    Number of faces shared with processor 130 = 4571
    Number of faces shared with processor 143 = 1512
    Number of faces shared with processor 179 = 5198
    Number of faces shared with processor 82 = 1
    Number of faces shared with processor 83 = 5162
    Number of faces shared with processor 119 = 1476
    Number of processor patches = 6
    Number of processor faces = 17920
    Number of boundary faces = 4500

Processor 132
    Number of cells = 188880
    Number of points = 200346
    Number of faces shared with processor 133 = 4530
    Number of faces shared with processor 180 = 5234
    Number of faces shared with processor 181 = 1
    Number of faces shared with processor 84 = 5250
    Number of faces shared with processor 120 = 1512
    Number of processor patches = 5
    Number of processor faces = 16527
    Number of boundary faces = 5997

Processor 133
    Number of cells = 184620
    Number of points = 195955
    Number of faces shared with processor 132 = 4530
    Number of faces shared with processor 134 = 4500
    Number of faces shared with processor 181 = 5140
    Number of faces shared with processor 85 = 5125
    Number of faces shared with processor 121 = 1476
    Number of processor patches = 5
    Number of processor faces = 20771
    Number of boundary faces = 1491

Processor 134
    Number of cells = 189000
    Number of points = 200466
    Number of faces shared with processor 133 = 4500
    Number of faces shared with processor 135 = 4500
    Number of faces shared with processor 182 = 5250
    Number of faces shared with processor 86 = 5250
    Number of faces shared with processor 122 = 1512
    Number of processor patches = 5
    Number of processor faces = 21012
    Number of boundary faces = 1512

Processor 135
    Number of cells = 188736
    Number of points = 200202
    Number of faces shared with processor 134 = 4500
    Number of faces shared with processor 136 = 4518
    Number of faces shared with processor 171 = 2
    Number of faces shared with processor 183 = 5269
    Number of faces shared with processor 184 = 1
    Number of faces shared with processor 87 = 5250
    Number of faces shared with processor 123 = 1487
    Number of processor patches = 7
    Number of processor faces = 21027
    Number of boundary faces = 1497

Processor 136
    Number of cells = 183708
    Number of points = 195031
    Number of faces shared with processor 135 = 4518
    Number of faces shared with processor 137 = 4467
    Number of faces shared with processor 184 = 5201
    Number of faces shared with processor 185 = 1
    Number of faces shared with processor 88 = 5125
    Number of faces shared with processor 124 = 1435
    Number of processor patches = 6
    Number of processor faces = 20747
    Number of boundary faces = 1491

Processor 137
    Number of cells = 187194
    Number of points = 198627
    Number of faces shared with processor 136 = 4467
    Number of faces shared with processor 138 = 4446
    Number of faces shared with processor 185 = 5312
    Number of faces shared with processor 186 = 1
    Number of faces shared with processor 89 = 5250
    Number of faces shared with processor 125 = 1470
    Number of processor patches = 6
    Number of processor faces = 20946
    Number of boundary faces = 1512

Processor 138
    Number of cells = 186192
    Number of points = 197604
    Number of faces shared with processor 137 = 4446
    Number of faces shared with processor 139 = 4455
    Number of faces shared with processor 186 = 5296
    Number of faces shared with processor 187 = 2
    Number of faces shared with processor 90 = 5250
    Number of faces shared with processor 126 = 1470
    Number of processor patches = 6
    Number of processor faces = 20919
    Number of boundary faces = 1497

Processor 139
    Number of cells = 181145
    Number of points = 192405
    Number of faces shared with processor 138 = 4455
    Number of faces shared with processor 140 = 4405
    Number of faces shared with processor 187 = 5201
    Number of faces shared with processor 91 = 5125
    Number of faces shared with processor 127 = 1435
    Number of processor patches = 5
    Number of processor faces = 20621
    Number of boundary faces = 1491

Processor 140
    Number of cells = 184569
    Number of points = 195940
    Number of faces shared with processor 128 = 1470
    Number of faces shared with processor 139 = 4405
    Number of faces shared with processor 141 = 4384
    Number of faces shared with processor 188 = 5313
    Number of faces shared with processor 92 = 5250
    Number of processor patches = 5
    Number of processor faces = 20822
    Number of boundary faces = 1512

Processor 141
    Number of cells = 183726
    Number of points = 195051
    Number of faces shared with processor 129 = 1470
    Number of faces shared with processor 140 = 4384
    Number of faces shared with processor 142 = 4403
    Number of faces shared with processor 189 = 5261
    Number of faces shared with processor 190 = 1
    Number of faces shared with processor 93 = 5250
    Number of processor patches = 6
    Number of processor faces = 20769
    Number of boundary faces = 1473

Processor 142
    Number of cells = 179705
    Number of points = 190916
    Number of faces shared with processor 130 = 1464
    Number of faces shared with processor 141 = 4403
    Number of faces shared with processor 143 = 4390
    Number of faces shared with processor 190 = 5139
    Number of faces shared with processor 94 = 5169
    Number of processor patches = 5
    Number of processor faces = 20565
    Number of boundary faces = 1449

Processor 143
    Number of cells = 184821
    Number of points = 196198
    Number of faces shared with processor 131 = 1512
    Number of faces shared with processor 142 = 4390
    Number of faces shared with processor 191 = 5250
    Number of faces shared with processor 95 = 5313
    Number of processor patches = 4
    Number of processor faces = 16465
    Number of boundary faces = 5881

Processor 144
    Number of cells = 189000
    Number of points = 200466
    Number of faces shared with processor 145 = 4500
    Number of faces shared with processor 156 = 1512
    Number of faces shared with processor 192 = 5250
    Number of faces shared with processor 96 = 5250
    Number of processor patches = 4
    Number of processor faces = 16512
    Number of boundary faces = 6012

Processor 145
    Number of cells = 189000
    Number of points = 200466
    Number of faces shared with processor 144 = 4500
    Number of faces shared with processor 146 = 4500
    Number of faces shared with processor 157 = 1512
    Number of faces shared with processor 193 = 5250
    Number of faces shared with processor 97 = 5250
    Number of processor patches = 5
    Number of processor faces = 21012
    Number of boundary faces = 1512

Processor 146
    Number of cells = 184419
    Number of points = 195723
    Number of faces shared with processor 145 = 4500
    Number of faces shared with processor 147 = 4491
    Number of faces shared with processor 158 = 1476
    Number of faces shared with processor 194 = 5151
    Number of faces shared with processor 98 = 5125
    Number of processor patches = 5
    Number of processor faces = 20743
    Number of boundary faces = 1459

Processor 147
    Number of cells = 188181
    Number of points = 199638
    Number of faces shared with processor 146 = 4491
    Number of faces shared with processor 148 = 4470
    Number of faces shared with processor 159 = 1512
    Number of faces shared with processor 195 = 5313
    Number of faces shared with processor 99 = 5250
    Number of processor patches = 5
    Number of processor faces = 21036
    Number of boundary faces = 1470

Processor 148
    Number of cells = 187299
    Number of points = 198735
    Number of faces shared with processor 147 = 4470
    Number of faces shared with processor 149 = 4449
    Number of faces shared with processor 160 = 1512
    Number of faces shared with processor 196 = 5313
    Number of faces shared with processor 100 = 5250
    Number of processor patches = 5
    Number of processor faces = 20994
    Number of boundary faces = 1470

Processor 149
    Number of cells = 181989
    Number of points = 193242
    Number of faces shared with processor 148 = 4449
    Number of faces shared with processor 150 = 4428
    Number of faces shared with processor 161 = 1476
    Number of faces shared with processor 197 = 5186
    Number of faces shared with processor 198 = 1
    Number of faces shared with processor 101 = 5125
    Number of processor patches = 6
    Number of processor faces = 20665
    Number of boundary faces = 1435

Processor 150
    Number of cells = 185556
    Number of points = 196950
    Number of faces shared with processor 149 = 4428
    Number of faces shared with processor 151 = 4407
    Number of faces shared with processor 162 = 1512
    Number of faces shared with processor 198 = 5312
    Number of faces shared with processor 199 = 1
    Number of faces shared with processor 102 = 5250
    Number of processor patches = 6
    Number of processor faces = 20910
    Number of boundary faces = 1470

Processor 151
    Number of cells = 184674
    Number of points = 196047
    Number of faces shared with processor 150 = 4407
    Number of faces shared with processor 152 = 4386
    Number of faces shared with processor 163 = 1512
    Number of faces shared with processor 199 = 5312
    Number of faces shared with processor 200 = 1
    Number of faces shared with processor 103 = 5250
    Number of processor patches = 6
    Number of processor faces = 20868
    Number of boundary faces = 1470

Processor 152
    Number of cells = 179507
    Number of points = 190678
    Number of faces shared with processor 151 = 4386
    Number of faces shared with processor 153 = 4375
    Number of faces shared with processor 164 = 1457
    Number of faces shared with processor 200 = 5158
    Number of faces shared with processor 104 = 5125
    Number of processor patches = 5
    Number of processor faces = 20501
    Number of boundary faces = 1435

Processor 153
    Number of cells = 183894
    Number of points = 195228
    Number of faces shared with processor 152 = 4375
    Number of faces shared with processor 154 = 4387
    Number of faces shared with processor 165 = 1470
    Number of faces shared with processor 201 = 5250
    Number of faces shared with processor 105 = 5285
    Number of processor patches = 5
    Number of processor faces = 20767
    Number of boundary faces = 1493

Processor 154
    Number of cells = 184708
    Number of points = 196082
    Number of faces shared with processor 153 = 4387
    Number of faces shared with processor 155 = 4408
    Number of faces shared with processor 166 = 1470
    Number of faces shared with processor 202 = 5250
    Number of faces shared with processor 106 = 5313
    Number of processor patches = 5
    Number of processor faces = 20828
    Number of boundary faces = 1512

Processor 155
    Number of cells = 181169
    Number of points = 192402
    Number of faces shared with processor 154 = 4408
    Number of faces shared with processor 167 = 1435
    Number of faces shared with processor 203 = 5125
    Number of faces shared with processor 106 = 1
    Number of faces shared with processor 107 = 5186
    Number of processor patches = 5
    Number of processor faces = 16155
    Number of boundary faces = 5905

Processor 156
    Number of cells = 189000
    Number of points = 200466
    Number of faces shared with processor 144 = 1512
    Number of faces shared with processor 157 = 4500
    Number of faces shared with processor 168 = 1512
    Number of faces shared with processor 204 = 5250
    Number of faces shared with processor 108 = 5250
    Number of processor patches = 5
    Number of processor faces = 18024
    Number of boundary faces = 4500

Processor 157
    Number of cells = 189000
    Number of points = 200466
    Number of faces shared with processor 145 = 1512
    Number of faces shared with processor 156 = 4500
    Number of faces shared with processor 158 = 4500
    Number of faces shared with processor 169 = 1512
    Number of faces shared with processor 205 = 5250
    Number of faces shared with processor 109 = 5250
    Number of processor patches = 6
    Number of processor faces = 22524
    Number of boundary faces = 0

Processor 158
    Number of cells = 184500
    Number of points = 195804
    Number of faces shared with processor 146 = 1476
    Number of faces shared with processor 157 = 4500
    Number of faces shared with processor 159 = 4500
    Number of faces shared with processor 170 = 1476
    Number of faces shared with processor 206 = 5125
    Number of faces shared with processor 110 = 5125
    Number of processor patches = 6
    Number of processor faces = 22202
    Number of boundary faces = 0

Processor 159
    Number of cells = 189000
    Number of points = 200466
    Number of faces shared with processor 147 = 1512
    Number of faces shared with processor 158 = 4500
    Number of faces shared with processor 160 = 4500
    Number of faces shared with processor 171 = 1512
    Number of faces shared with processor 207 = 5250
    Number of faces shared with processor 111 = 5250
    Number of processor patches = 6
    Number of processor faces = 22524
    Number of boundary faces = 0

Processor 160
    Number of cells = 189000
    Number of points = 200466
    Number of faces shared with processor 148 = 1512
    Number of faces shared with processor 159 = 4500
    Number of faces shared with processor 161 = 4500
    Number of faces shared with processor 172 = 1512
    Number of faces shared with processor 208 = 5250
    Number of faces shared with processor 112 = 5250
    Number of processor patches = 6
    Number of processor faces = 22524
    Number of boundary faces = 0

Processor 161
    Number of cells = 184500
    Number of points = 195804
    Number of faces shared with processor 149 = 1476
    Number of faces shared with processor 160 = 4500
    Number of faces shared with processor 162 = 4500
    Number of faces shared with processor 173 = 1476
    Number of faces shared with processor 209 = 5125
    Number of faces shared with processor 113 = 5125
    Number of processor patches = 6
    Number of processor faces = 22202
    Number of boundary faces = 0

Processor 162
    Number of cells = 189000
    Number of points = 200466
    Number of faces shared with processor 150 = 1512
    Number of faces shared with processor 161 = 4500
    Number of faces shared with processor 163 = 4500
    Number of faces shared with processor 174 = 1512
    Number of faces shared with processor 210 = 5250
    Number of faces shared with processor 114 = 5250
    Number of processor patches = 6
    Number of processor faces = 22524
    Number of boundary faces = 0

Processor 163
    Number of cells = 189000
    Number of points = 200466
    Number of faces shared with processor 151 = 1512
    Number of faces shared with processor 162 = 4500
    Number of faces shared with processor 164 = 4500
    Number of faces shared with processor 175 = 1512
    Number of faces shared with processor 211 = 5250
    Number of faces shared with processor 115 = 5250
    Number of processor patches = 6
    Number of processor faces = 22524
    Number of boundary faces = 0

Processor 164
    Number of cells = 184419
    Number of points = 195723
    Number of faces shared with processor 152 = 1457
    Number of faces shared with processor 163 = 4500
    Number of faces shared with processor 165 = 4491
    Number of faces shared with processor 176 = 1476
    Number of faces shared with processor 200 = 2
    Number of faces shared with processor 212 = 5151
    Number of faces shared with processor 116 = 5125
    Number of processor patches = 7
    Number of processor faces = 22202
    Number of boundary faces = 0

Processor 165
    Number of cells = 188181
    Number of points = 199638
    Number of faces shared with processor 153 = 1470
    Number of faces shared with processor 164 = 4491
    Number of faces shared with processor 166 = 4470
    Number of faces shared with processor 177 = 1512
    Number of faces shared with processor 213 = 5313
    Number of faces shared with processor 117 = 5250
    Number of processor patches = 6
    Number of processor faces = 22506
    Number of boundary faces = 0

Processor 166
    Number of cells = 187299
[...]
    in file db/dynamicLibrary/dlLibraryTable/dlLibraryTable.C at line 188
    Could not load "libpetscFoam.so"
libpetscFoam.so: cannot open shared object file: No such file or directory
Processor 609: field transfer
--> FOAM Warning : 
    From void* Foam::dlLibraryTable::openLibrary(const Foam::fileName&, bool)
    in file db/dynamicLibrary/dlLibraryTable/dlLibraryTable.C at line 188
    Could not load "libpetscFoam.so"
libpetscFoam.so: cannot open shared object file: No such file or directory
Processor 610: field transfer
--> FOAM Warning : 
    From void* Foam::dlLibraryTable::openLibrary(const Foam::fileName&, bool)
    in file db/dynamicLibrary/dlLibraryTable/dlLibraryTable.C at line 188
    Could not load "libpetscFoam.so"
libpetscFoam.so: cannot open shared object file: No such file or directory
Processor 611: field transfer
--> FOAM Warning : 
    From void* Foam::dlLibraryTable::openLibrary(const Foam::fileName&, bool)
    in file db/dynamicLibrary/dlLibraryTable/dlLibraryTable.C at line 188
    Could not load "libpetscFoam.so"
libpetscFoam.so: cannot open shared object file: No such file or directory
Processor 612: field transfer
--> FOAM Warning : 
    From void* Foam::dlLibraryTable::openLibrary(const Foam::fileName&, bool)
    in file db/dynamicLibrary/dlLibraryTable/dlLibraryTable.C at line 188
    Could not load "libpetscFoam.so"
libpetscFoam.so: cannot open shared object file: No such file or directory
Processor 613: field transfer
--> FOAM Warning : 
    From void* Foam::dlLibraryTable::openLibrary(const Foam::fileName&, bool)
    in file db/dynamicLibrary/dlLibraryTable/dlLibraryTable.C at line 188
    Could not load "libpetscFoam.so"
libpetscFoam.so: cannot open shared object file: No such file or directory
Processor 614: field transfer
--> FOAM Warning : 
    From void* Foam::dlLibraryTable::openLibrary(const Foam::fileName&, bool)
    in file db/dynamicLibrary/dlLibraryTable/dlLibraryTable.C at line 188
    Could not load "libpetscFoam.so"
libpetscFoam.so: cannot open shared object file: No such file or directory
Processor 615: field transfer
--> FOAM Warning : 
    From void* Foam::dlLibraryTable::openLibrary(const Foam::fileName&, bool)
    in file db/dynamicLibrary/dlLibraryTable/dlLibraryTable.C at line 188
    Could not load "libpetscFoam.so"
libpetscFoam.so: cannot open shared object file: No such file or directory
Processor 616: field transfer
--> FOAM Warning : 
    From void* Foam::dlLibraryTable::openLibrary(const Foam::fileName&, bool)
    in file db/dynamicLibrary/dlLibraryTable/dlLibraryTable.C at line 188
    Could not load "libpetscFoam.so"
libpetscFoam.so: cannot open shared object file: No such file or directory
Processor 617: field transfer
--> FOAM Warning : 
    From void* Foam::dlLibraryTable::openLibrary(const Foam::fileName&, bool)
    in file db/dynamicLibrary/dlLibraryTable/dlLibraryTable.C at line 188
    Could not load "libpetscFoam.so"
libpetscFoam.so: cannot open shared object file: No such file or directory
Processor 618: field transfer
--> FOAM Warning : 
    From void* Foam::dlLibraryTable::openLibrary(const Foam::fileName&, bool)
    in file db/dynamicLibrary/dlLibraryTable/dlLibraryTable.C at line 188
    Could not load "libpetscFoam.so"
libpetscFoam.so: cannot open shared object file: No such file or directory
Processor 619: field transfer
--> FOAM Warning : 
    From void* Foam::dlLibraryTable::openLibrary(const Foam::fileName&, bool)
    in file db/dynamicLibrary/dlLibraryTable/dlLibraryTable.C at line 188
    Could not load "libpetscFoam.so"
libpetscFoam.so: cannot open shared object file: No such file or directory
Processor 620: field transfer
--> FOAM Warning : 
    From void* Foam::dlLibraryTable::openLibrary(const Foam::fileName&, bool)
    in file db/dynamicLibrary/dlLibraryTable/dlLibraryTable.C at line 188
    Could not load "libpetscFoam.so"
libpetscFoam.so: cannot open shared object file: No such file or directory
Processor 621: field transfer
--> FOAM Warning : 
    From void* Foam::dlLibraryTable::openLibrary(const Foam::fileName&, bool)
    in file db/dynamicLibrary/dlLibraryTable/dlLibraryTable.C at line 188
    Could not load "libpetscFoam.so"
libpetscFoam.so: cannot open shared object file: No such file or directory
Processor 622: field transfer
--> FOAM Warning : 
    From void* Foam::dlLibraryTable::openLibrary(const Foam::fileName&, bool)
    in file db/dynamicLibrary/dlLibraryTable/dlLibraryTable.C at line 188
    Could not load "libpetscFoam.so"
libpetscFoam.so: cannot open shared object file: No such file or directory
Processor 623: field transfer
--> FOAM Warning : 
    From void* Foam::dlLibraryTable::openLibrary(const Foam::fileName&, bool)
    in file db/dynamicLibrary/dlLibraryTable/dlLibraryTable.C at line 188
    Could not load "libpetscFoam.so"
libpetscFoam.so: cannot open shared object file: No such file or directory
Processor 624: field transfer
--> FOAM Warning : 
    From void* Foam::dlLibraryTable::openLibrary(const Foam::fileName&, bool)
    in file db/dynamicLibrary/dlLibraryTable/dlLibraryTable.C at line 188
    Could not load "libpetscFoam.so"
libpetscFoam.so: cannot open shared object file: No such file or directory
Processor 625: field transfer
--> FOAM Warning : 
    From void* Foam::dlLibraryTable::openLibrary(const Foam::fileName&, bool)
    in file db/dynamicLibrary/dlLibraryTable/dlLibraryTable.C at line 188
    Could not load "libpetscFoam.so"
libpetscFoam.so: cannot open shared object file: No such file or directory
Processor 626: field transfer
--> FOAM Warning : 
    From void* Foam::dlLibraryTable::openLibrary(const Foam::fileName&, bool)
    in file db/dynamicLibrary/dlLibraryTable/dlLibraryTable.C at line 188
    Could not load "libpetscFoam.so"
libpetscFoam.so: cannot open shared object file: No such file or directory
Processor 627: field transfer
--> FOAM Warning : 
    From void* Foam::dlLibraryTable::openLibrary(const Foam::fileName&, bool)
    in file db/dynamicLibrary/dlLibraryTable/dlLibraryTable.C at line 188
    Could not load "libpetscFoam.so"
libpetscFoam.so: cannot open shared object file: No such file or directory
Processor 628: field transfer
--> FOAM Warning : 
    From void* Foam::dlLibraryTable::openLibrary(const Foam::fileName&, bool)
    in file db/dynamicLibrary/dlLibraryTable/dlLibraryTable.C at line 188
    Could not load "libpetscFoam.so"
libpetscFoam.so: cannot open shared object file: No such file or directory
Processor 629: field transfer
--> FOAM Warning : 
    From void* Foam::dlLibraryTable::openLibrary(const Foam::fileName&, bool)
    in file db/dynamicLibrary/dlLibraryTable/dlLibraryTable.C at line 188
    Could not load "libpetscFoam.so"
libpetscFoam.so: cannot open shared object file: No such file or directory
Processor 630: field transfer
--> FOAM Warning : 
    From void* Foam::dlLibraryTable::openLibrary(const Foam::fileName&, bool)
    in file db/dynamicLibrary/dlLibraryTable/dlLibraryTable.C at line 188
    Could not load "libpetscFoam.so"
libpetscFoam.so: cannot open shared object file: No such file or directory
Processor 631: field transfer
--> FOAM Warning : 
    From void* Foam::dlLibraryTable::openLibrary(const Foam::fileName&, bool)
    in file db/dynamicLibrary/dlLibraryTable/dlLibraryTable.C at line 188
    Could not load "libpetscFoam.so"
libpetscFoam.so: cannot open shared object file: No such file or directory
Processor 632: field transfer
--> FOAM Warning : 
    From void* Foam::dlLibraryTable::openLibrary(const Foam::fileName&, bool)
    in file db/dynamicLibrary/dlLibraryTable/dlLibraryTable.C at line 188
    Could not load "libpetscFoam.so"
libpetscFoam.so: cannot open shared object file: No such file or directory
Processor 633: field transfer
--> FOAM Warning : 
    From void* Foam::dlLibraryTable::openLibrary(const Foam::fileName&, bool)
    in file db/dynamicLibrary/dlLibraryTable/dlLibraryTable.C at line 188
    Could not load "libpetscFoam.so"
libpetscFoam.so: cannot open shared object file: No such file or directory
Processor 634: field transfer
--> FOAM Warning : 
    From void* Foam::dlLibraryTable::openLibrary(const Foam::fileName&, bool)
    in file db/dynamicLibrary/dlLibraryTable/dlLibraryTable.C at line 188
    Could not load "libpetscFoam.so"
libpetscFoam.so: cannot open shared object file: No such file or directory
Processor 635: field transfer
--> FOAM Warning : 
    From void* Foam::dlLibraryTable::openLibrary(const Foam::fileName&, bool)
    in file db/dynamicLibrary/dlLibraryTable/dlLibraryTable.C at line 188
    Could not load "libpetscFoam.so"
libpetscFoam.so: cannot open shared object file: No such file or directory
Processor 636: field transfer
--> FOAM Warning : 
    From void* Foam::dlLibraryTable::openLibrary(const Foam::fileName&, bool)
    in file db/dynamicLibrary/dlLibraryTable/dlLibraryTable.C at line 188
    Could not load "libpetscFoam.so"
libpetscFoam.so: cannot open shared object file: No such file or directory
Processor 637: field transfer
--> FOAM Warning : 
    From void* Foam::dlLibraryTable::openLibrary(const Foam::fileName&, bool)
    in file db/dynamicLibrary/dlLibraryTable/dlLibraryTable.C at line 188
    Could not load "libpetscFoam.so"
libpetscFoam.so: cannot open shared object file: No such file or directory
Processor 638: field transfer
--> FOAM Warning : 
    From void* Foam::dlLibraryTable::openLibrary(const Foam::fileName&, bool)
    in file db/dynamicLibrary/dlLibraryTable/dlLibraryTable.C at line 188
    Could not load "libpetscFoam.so"
libpetscFoam.so: cannot open shared object file: No such file or directory
Processor 639: field transfer
--> FOAM Warning : 
    From void* Foam::dlLibraryTable::openLibrary(const Foam::fileName&, bool)
    in file db/dynamicLibrary/dlLibraryTable/dlLibraryTable.C at line 188
    Could not load "libpetscFoam.so"
libpetscFoam.so: cannot open shared object file: No such file or directory
Processor 640: field transfer
--> FOAM Warning : 
    From void* Foam::dlLibraryTable::openLibrary(const Foam::fileName&, bool)
    in file db/dynamicLibrary/dlLibraryTable/dlLibraryTable.C at line 188
    Could not load "libpetscFoam.so"
libpetscFoam.so: cannot open shared object file: No such file or directory
Processor 641: field transfer
--> FOAM Warning : 
    From void* Foam::dlLibraryTable::openLibrary(const Foam::fileName&, bool)
    in file db/dynamicLibrary/dlLibraryTable/dlLibraryTable.C at line 188
    Could not load "libpetscFoam.so"
libpetscFoam.so: cannot open shared object file: No such file or directory
Processor 642: field transfer
--> FOAM Warning : 
    From void* Foam::dlLibraryTable::openLibrary(const Foam::fileName&, bool)
    in file db/dynamicLibrary/dlLibraryTable/dlLibraryTable.C at line 188
    Could not load "libpetscFoam.so"
libpetscFoam.so: cannot open shared object file: No such file or directory
Processor 643: field transfer
--> FOAM Warning : 
    From void* Foam::dlLibraryTable::openLibrary(const Foam::fileName&, bool)
    in file db/dynamicLibrary/dlLibraryTable/dlLibraryTable.C at line 188
    Could not load "libpetscFoam.so"
libpetscFoam.so: cannot open shared object file: No such file or directory
Processor 644: field transfer
--> FOAM Warning : 
    From void* Foam::dlLibraryTable::openLibrary(const Foam::fileName&, bool)
    in file db/dynamicLibrary/dlLibraryTable/dlLibraryTable.C at line 188
    Could not load "libpetscFoam.so"
libpetscFoam.so: cannot open shared object file: No such file or directory
Processor 645: field transfer
--> FOAM Warning : 
    From void* Foam::dlLibraryTable::openLibrary(const Foam::fileName&, bool)
    in file db/dynamicLibrary/dlLibraryTable/dlLibraryTable.C at line 188
    Could not load "libpetscFoam.so"
libpetscFoam.so: cannot open shared object file: No such file or directory
Processor 646: field transfer
--> FOAM Warning : 
    From void* Foam::dlLibraryTable::openLibrary(const Foam::fileName&, bool)
    in file db/dynamicLibrary/dlLibraryTable/dlLibraryTable.C at line 188
    Could not load "libpetscFoam.so"
libpetscFoam.so: cannot open shared object file: No such file or directory
Processor 647: field transfer
--> FOAM Warning : 
    From void* Foam::dlLibraryTable::openLibrary(const Foam::fileName&, bool)
    in file db/dynamicLibrary/dlLibraryTable/dlLibraryTable.C at line 188
    Could not load "libpetscFoam.so"
libpetscFoam.so: cannot open shared object file: No such file or directory
Processor 648: field transfer
--> FOAM Warning : 
    From void* Foam::dlLibraryTable::openLibrary(const Foam::fileName&, bool)
    in file db/dynamicLibrary/dlLibraryTable/dlLibraryTable.C at line 188
    Could not load "libpetscFoam.so"
libpetscFoam.so: cannot open shared object file: No such file or directory
Processor 649: field transfer
--> FOAM Warning : 
    From void* Foam::dlLibraryTable::openLibrary(const Foam::fileName&, bool)
    in file db/dynamicLibrary/dlLibraryTable/dlLibraryTable.C at line 188
    Could not load "libpetscFoam.so"
libpetscFoam.so: cannot open shared object file: No such file or directory
Processor 650: field transfer
--> FOAM Warning : 
    From void* Foam::dlLibraryTable::openLibrary(const Foam::fileName&, bool)
    in file db/dynamicLibrary/dlLibraryTable/dlLibraryTable.C at line 188
    Could not load "libpetscFoam.so"
libpetscFoam.so: cannot open shared object file: No such file or directory
Processor 651: field transfer
--> FOAM Warning : 
    From void* Foam::dlLibraryTable::openLibrary(const Foam::fileName&, bool)
    in file db/dynamicLibrary/dlLibraryTable/dlLibraryTable.C at line 188
    Could not load "libpetscFoam.so"
libpetscFoam.so: cannot open shared object file: No such file or directory
Processor 652: field transfer
--> FOAM Warning : 
    From void* Foam::dlLibraryTable::openLibrary(const Foam::fileName&, bool)
    in file db/dynamicLibrary/dlLibraryTable/dlLibraryTable.C at line 188
    Could not load "libpetscFoam.so"
libpetscFoam.so: cannot open shared object file: No such file or directory
Processor 653: field transfer
--> FOAM Warning : 
    From void* Foam::dlLibraryTable::openLibrary(const Foam::fileName&, bool)
    in file db/dynamicLibrary/dlLibraryTable/dlLibraryTable.C at line 188
    Could not load "libpetscFoam.so"
libpetscFoam.so: cannot open shared object file: No such file or directory
Processor 654: field transfer
--> FOAM Warning : 
    From void* Foam::dlLibraryTable::openLibrary(const Foam::fileName&, bool)
    in file db/dynamicLibrary/dlLibraryTable/dlLibraryTable.C at line 188
    Could not load "libpetscFoam.so"
libpetscFoam.so: cannot open shared object file: No such file or directory
Processor 655: field transfer
--> FOAM Warning : 
    From void* Foam::dlLibraryTable::openLibrary(const Foam::fileName&, bool)
    in file db/dynamicLibrary/dlLibraryTable/dlLibraryTable.C at line 188
    Could not load "libpetscFoam.so"
libpetscFoam.so: cannot open shared object file: No such file or directory
Processor 656: field transfer
--> FOAM Warning : 
    From void* Foam::dlLibraryTable::openLibrary(const Foam::fileName&, bool)
    in file db/dynamicLibrary/dlLibraryTable/dlLibraryTable.C at line 188
    Could not load "libpetscFoam.so"
libpetscFoam.so: cannot open shared object file: No such file or directory
Processor 657: field transfer
--> FOAM Warning : 
    From void* Foam::dlLibraryTable::openLibrary(const Foam::fileName&, bool)
    in file db/dynamicLibrary/dlLibraryTable/dlLibraryTable.C at line 188
    Could not load "libpetscFoam.so"
libpetscFoam.so: cannot open shared object file: No such file or directory
Processor 658: field transfer
--> FOAM Warning : 
    From void* Foam::dlLibraryTable::openLibrary(const Foam::fileName&, bool)
    in file db/dynamicLibrary/dlLibraryTable/dlLibraryTable.C at line 188
    Could not load "libpetscFoam.so"
libpetscFoam.so: cannot open shared object file: No such file or directory
Processor 659: field transfer
--> FOAM Warning : 
    From void* Foam::dlLibraryTable::openLibrary(const Foam::fileName&, bool)
    in file db/dynamicLibrary/dlLibraryTable/dlLibraryTable.C at line 188
    Could not load "libpetscFoam.so"
libpetscFoam.so: cannot open shared object file: No such file or directory
Processor 660: field transfer
--> FOAM Warning : 
    From void* Foam::dlLibraryTable::openLibrary(const Foam::fileName&, bool)
    in file db/dynamicLibrary/dlLibraryTable/dlLibraryTable.C at line 188
    Could not load "libpetscFoam.so"
libpetscFoam.so: cannot open shared object file: No such file or directory
Processor 661: field transfer
--> FOAM Warning : 
    From void* Foam::dlLibraryTable::openLibrary(const Foam::fileName&, bool)
    in file db/dynamicLibrary/dlLibraryTable/dlLibraryTable.C at line 188
    Could not load "libpetscFoam.so"
libpetscFoam.so: cannot open shared object file: No such file or directory
Processor 662: field transfer
--> FOAM Warning : 
    From void* Foam::dlLibraryTable::openLibrary(const Foam::fileName&, bool)
    in file db/dynamicLibrary/dlLibraryTable/dlLibraryTable.C at line 188
    Could not load "libpetscFoam.so"
libpetscFoam.so: cannot open shared object file: No such file or directory
Processor 663: field transfer
--> FOAM Warning : 
    From void* Foam::dlLibraryTable::openLibrary(const Foam::fileName&, bool)
    in file db/dynamicLibrary/dlLibraryTable/dlLibraryTable.C at line 188
    Could not load "libpetscFoam.so"
libpetscFoam.so: cannot open shared object file: No such file or directory
Processor 664: field transfer
--> FOAM Warning : 
    From void* Foam::dlLibraryTable::openLibrary(const Foam::fileName&, bool)
    in file db/dynamicLibrary/dlLibraryTable/dlLibraryTable.C at line 188
    Could not load "libpetscFoam.so"
libpetscFoam.so: cannot open shared object file: No such file or directory
Processor 665: field transfer
--> FOAM Warning : 
    From void* Foam::dlLibraryTable::openLibrary(const Foam::fileName&, bool)
    in file db/dynamicLibrary/dlLibraryTable/dlLibraryTable.C at line 188
    Could not load "libpetscFoam.so"
libpetscFoam.so: cannot open shared object file: No such file or directory
Processor 666: field transfer
--> FOAM Warning : 
    From void* Foam::dlLibraryTable::openLibrary(const Foam::fileName&, bool)
    in file db/dynamicLibrary/dlLibraryTable/dlLibraryTable.C at line 188
    Could not load "libpetscFoam.so"
libpetscFoam.so: cannot open shared object file: No such file or directory
Processor 667: field transfer
--> FOAM Warning : 
    From void* Foam::dlLibraryTable::openLibrary(const Foam::fileName&, bool)
    in file db/dynamicLibrary/dlLibraryTable/dlLibraryTable.C at line 188
    Could not load "libpetscFoam.so"
libpetscFoam.so: cannot open shared object file: No such file or directory
Processor 668: field transfer
--> FOAM Warning : 
    From void* Foam::dlLibraryTable::openLibrary(const Foam::fileName&, bool)
    in file db/dynamicLibrary/dlLibraryTable/dlLibraryTable.C at line 188
    Could not load "libpetscFoam.so"
libpetscFoam.so: cannot open shared object file: No such file or directory
Processor 669: field transfer
--> FOAM Warning : 
    From void* Foam::dlLibraryTable::openLibrary(const Foam::fileName&, bool)
    in file db/dynamicLibrary/dlLibraryTable/dlLibraryTable.C at line 188
    Could not load "libpetscFoam.so"
libpetscFoam.so: cannot open shared object file: No such file or directory
Processor 670: field transfer
--> FOAM Warning : 
    From void* Foam::dlLibraryTable::openLibrary(const Foam::fileName&, bool)
    in file db/dynamicLibrary/dlLibraryTable/dlLibraryTable.C at line 188
    Could not load "libpetscFoam.so"
libpetscFoam.so: cannot open shared object file: No such file or directory
Processor 671: field transfer
--> FOAM Warning : 
    From void* Foam::dlLibraryTable::openLibrary(const Foam::fileName&, bool)
    in file db/dynamicLibrary/dlLibraryTable/dlLibraryTable.C at line 188
    Could not load "libpetscFoam.so"
libpetscFoam.so: cannot open shared object file: No such file or directory

End

