/*---------------------------------------------------------------------------*\
| =========                 |                                                 |
| \\      /  F ield         | OpenFOAM: The Open Source CFD Toolbox           |
|  \\    /   O peration     | Version:  2306                                  |
|   \\  /    A nd           | Website:  www.openfoam.com                      |
|    \\/     M anipulation  |                                                 |
\*---------------------------------------------------------------------------*/
Build  : c423ebec-20231012 OPENFOAM=2306 version=v2306
Arch   : "LSB;label=32;scalar=64"
Exec   : icoFoam -parallel -case /hkfs/work/workspace/scratch/eq4036-l3d/workspace/f5bc6f7da28da635ff2c38691594d010/case
Date   : Dec 30 2023
Time   : 01:17:10
Host   : hkn1606.localdomain
PID    : 962921
I/O    : uncollated
Case   : /hkfs/work/workspace/scratch/eq4036-l3d/workspace/f5bc6f7da28da635ff2c38691594d010/case
nProcs : 76
Hosts  :
(
    (hkn1606.localdomain 76)
)
Pstream initialized with:
    floatTransfer      : false
    nProcsSimpleSum    : 0
    nonBlockingExchange: 0 (tuning: 0)
    exchange algorithm : -1
    commsType          : nonBlocking
    polling iterations : 0
trapFpe: Floating point exception trapping enabled (FOAM_SIGFPE).
fileModificationChecking : Monitoring run-time modified files using timeStampMaster (fileModificationSkew 5, maxFileModificationPolls 20)
allowSystemOperations : Allowing user-supplied system call operations

// * * * * * * * * * * * * * * * * * * * * * * * * * * * * * * * * * * * * * //
Create time

--> FOAM Warning : 
    From void* Foam::dlLibraryTable::openLibrary(const Foam::fileName&, bool)
    in file db/dynamicLibrary/dlLibraryTable/dlLibraryTable.C at line 188
    Could not load "libpetscFoam.so"
libpetscFoam.so: cannot open shared object file: No such file or directory
Create mesh for time = 0


PISO: Operating solver in PISO mode

Reading transportProperties

Reading field p

Reading field U

Reading/calculating face flux field phi


Starting time loop

Time = 0.000125

Courant Number mean: 8.02505e-18 max: 4.85723e-14
[INFO] MatrixAssemblyU: 533.903 [ms]
DILUPBiCGStab:  Solving for Ux, Initial residual = 1, Final residual = 0.0261796, No Iterations 5
DILUPBiCGStab:  Solving for Uy:  solution singularity
DILUPBiCGStab:  Solving for Uz:  solution singularity
[INFO] MomentumPredictor: 1791.76 [ms]
[INFO] MatrixAssemblyPI: 571.357 [ms]
[INFO] AdjustPhi: 48.779 [ms]
[INFO] ConstrainPressure: 0.008 [ms]
[INFO] MatrixAssemblyPII: 131.532 [ms]
nonePCG:  Solving for p, Initial residual = 1, Final residual = 9.90384e-05, No Iterations 3233
[INFO] SolveP: 180095 [ms]
time step continuity errors : sum local = 3.44738e-09, global = 1.91469e-21, cumulative = 1.91469e-21
[INFO] ContinuityError: 58.85 [ms]
[INFO] CorrectBoundary: 7.291 [ms]
[INFO] PISOStep: 181110 [ms]
[INFO] MatrixAssemblyPI: 539.717 [ms]
[INFO] AdjustPhi: 41.037 [ms]
[INFO] ConstrainPressure: 0.005 [ms]
[INFO] MatrixAssemblyPII: 132.712 [ms]
nonePCG:  Solving for p, Initial residual = 0.8142, Final residual = 9.9458e-05, No Iterations 3207
[INFO] SolveP: 177942 [ms]
time step continuity errors : sum local = 4.07937e-09, global = 2.01777e-21, cumulative = 3.93246e-21
[INFO] ContinuityError: 52.946 [ms]
[INFO] CorrectBoundary: 14.275 [ms]
[INFO] PISOStep: 178913 [ms]
[INFO] TimeStep: 362421 [ms]
ExecutionTime = 362.59 s  ClockTime = 365 s

Time = 0.00025

Courant Number mean: 0.0105485 max: 0.436449
[INFO] MatrixAssemblyU: 418.424 [ms]
DILUPBiCGStab:  Solving for Ux, Initial residual = 0.108666, Final residual = 0.0159869, No Iterations 5
DILUPBiCGStab:  Solving for Uy, Initial residual = 0.487231, Final residual = 0.0585708, No Iterations 5
DILUPBiCGStab:  Solving for Uz, Initial residual = 0.986329, Final residual = 0.139213, No Iterations 5
[INFO] MomentumPredictor: 3421.63 [ms]
[INFO] MatrixAssemblyPI: 552.028 [ms]
[INFO] AdjustPhi: 20.812 [ms]
[INFO] ConstrainPressure: 0.003 [ms]
[INFO] MatrixAssemblyPII: 131.823 [ms]
nonePCG:  Solving for p, Initial residual = 0.922269, Final residual = 9.95059e-05, No Iterations 1785
[INFO] SolveP: 99436.4 [ms]
time step continuity errors : sum local = 9.20332e-09, global = 2.29005e-21, cumulative = 6.22251e-21
[INFO] ContinuityError: 54.797 [ms]
[INFO] CorrectBoundary: 4.249 [ms]
[INFO] PISOStep: 100396 [ms]
[INFO] MatrixAssemblyPI: 543.934 [ms]
[INFO] AdjustPhi: 17.355 [ms]
[INFO] ConstrainPressure: 0.004 [ms]
[INFO] MatrixAssemblyPII: 133.894 [ms]
nonePCG:  Solving for p, Initial residual = 0.840588, Final residual = 9.97124e-05, No Iterations 1737
[INFO] SolveP: 96585 [ms]
time step continuity errors : sum local = 8.96804e-09, global = 2.43861e-21, cumulative = 8.66112e-21
[INFO] ContinuityError: 54.122 [ms]
[INFO] CorrectBoundary: 6.164 [ms]
[INFO] PISOStep: 97532.2 [ms]
[INFO] TimeStep: 201826 [ms]
ExecutionTime = 563.46 s  ClockTime = 567 s

Time = 0.000375

Courant Number mean: 0.0166096 max: 0.50938
[INFO] MatrixAssemblyU: 415.941 [ms]
DILUPBiCGStab:  Solving for Ux, Initial residual = 0.0536124, Final residual = 0.00657465, No Iterations 5
DILUPBiCGStab:  Solving for Uy, Initial residual = 0.260719, Final residual = 0.0300981, No Iterations 5
DILUPBiCGStab:  Solving for Uz, Initial residual = 0.868449, Final residual = 0.103891, No Iterations 5
[INFO] MomentumPredictor: 3392.24 [ms]
[INFO] MatrixAssemblyPI: 550.683 [ms]
[INFO] AdjustPhi: 27.231 [ms]
[INFO] ConstrainPressure: 0.003 [ms]
[INFO] MatrixAssemblyPII: 131.986 [ms]
nonePCG:  Solving for p, Initial residual = 0.94876, Final residual = 9.92223e-05, No Iterations 3182
[INFO] SolveP: 176816 [ms]
time step continuity errors : sum local = 1.03165e-08, global = 3.28624e-21, cumulative = 1.19474e-20
[INFO] ContinuityError: 54.439 [ms]
[INFO] CorrectBoundary: 4.06 [ms]
[INFO] PISOStep: 177781 [ms]
[INFO] MatrixAssemblyPI: 543.206 [ms]
[INFO] AdjustPhi: 19.947 [ms]
[INFO] ConstrainPressure: 0.005 [ms]
[INFO] MatrixAssemblyPII: 132.111 [ms]
nonePCG:  Solving for p, Initial residual = 0.889188, Final residual = 9.90432e-05, No Iterations 3180
[INFO] SolveP: 177602 [ms]
time step continuity errors : sum local = 1.02079e-08, global = 2.57087e-21, cumulative = 1.45182e-20
[INFO] ContinuityError: 54.476 [ms]
[INFO] CorrectBoundary: 4.811 [ms]
[INFO] PISOStep: 178550 [ms]
[INFO] TimeStep: 360195 [ms]
ExecutionTime = 921.88 s  ClockTime = 927 s

Time = 0.0005

Courant Number mean: 0.0202122 max: 0.476392
[INFO] MatrixAssemblyU: 420.85 [ms]
DILUPBiCGStab:  Solving for Ux, Initial residual = 0.0414702, Final residual = 0.00615721, No Iterations 5
DILUPBiCGStab:  Solving for Uy, Initial residual = 0.211288, Final residual = 0.0274335, No Iterations 5
DILUPBiCGStab:  Solving for Uz, Initial residual = 0.7708, Final residual = 0.0762725, No Iterations 5
[INFO] MomentumPredictor: 3386.55 [ms]
[INFO] MatrixAssemblyPI: 552.118 [ms]
[INFO] AdjustPhi: 30.375 [ms]
[INFO] ConstrainPressure: 0.004 [ms]
[INFO] MatrixAssemblyPII: 130.202 [ms]
nonePCG:  Solving for p, Initial residual = 0.945478, Final residual = 9.83542e-05, No Iterations 3174
[INFO] SolveP: 177149 [ms]
time step continuity errors : sum local = 1.22625e-08, global = 3.34401e-21, cumulative = 1.78622e-20
[INFO] ContinuityError: 55.999 [ms]
[INFO] CorrectBoundary: 5.922 [ms]
[INFO] PISOStep: 178121 [ms]
[INFO] MatrixAssemblyPI: 542.294 [ms]
[INFO] AdjustPhi: 19.61 [ms]
[INFO] ConstrainPressure: 0.003 [ms]
[INFO] MatrixAssemblyPII: 133.876 [ms]
nonePCG:  Solving for p, Initial residual = 0.867102, Final residual = 9.79983e-05, No Iterations 3172
[INFO] SolveP: 177392 [ms]
time step continuity errors : sum local = 1.24306e-08, global = 3.13408e-21, cumulative = 2.09963e-20
[INFO] ContinuityError: 56.128 [ms]
[INFO] CorrectBoundary: 5.75 [ms]
[INFO] PISOStep: 178341 [ms]
[INFO] TimeStep: 360326 [ms]
ExecutionTime = 1280.39 s  ClockTime = 1288 s

Time = 0.000625

Courant Number mean: 0.0232263 max: 0.551959
[INFO] MatrixAssemblyU: 419.453 [ms]
DILUPBiCGStab:  Solving for Ux, Initial residual = 0.0372567, Final residual = 0.00563667, No Iterations 5
DILUPBiCGStab:  Solving for Uy, Initial residual = 0.181187, Final residual = 0.0225026, No Iterations 5
DILUPBiCGStab:  Solving for Uz, Initial residual = 0.73275, Final residual = 0.0626317, No Iterations 5
[INFO] MomentumPredictor: 3397.11 [ms]
[INFO] MatrixAssemblyPI: 553.877 [ms]
[INFO] AdjustPhi: 32.705 [ms]
[INFO] ConstrainPressure: 0.003 [ms]
[INFO] MatrixAssemblyPII: 131.508 [ms]
nonePCG:  Solving for p, Initial residual = 0.959219, Final residual = 9.87773e-05, No Iterations 1506
[INFO] SolveP: 84045.9 [ms]
time step continuity errors : sum local = 1.53917e-08, global = 4.10778e-21, cumulative = 2.51041e-20
[INFO] ContinuityError: 57.315 [ms]
[INFO] CorrectBoundary: 4.315 [ms]
[INFO] PISOStep: 85023.6 [ms]
[INFO] MatrixAssemblyPI: 538.783 [ms]
[INFO] AdjustPhi: 33.525 [ms]
[INFO] ConstrainPressure: 0.006 [ms]
[INFO] MatrixAssemblyPII: 132.523 [ms]
nonePCG:  Solving for p, Initial residual = 0.899262, Final residual = 9.99616e-05, No Iterations 1489
[INFO] SolveP: 82883.8 [ms]
time step continuity errors : sum local = 1.44748e-08, global = 3.95899e-21, cumulative = 2.90631e-20
[INFO] ContinuityError: 53.205 [ms]
[INFO] CorrectBoundary: 5.66 [ms]
[INFO] PISOStep: 83845.7 [ms]
[INFO] TimeStep: 172742 [ms]
ExecutionTime = 1452.29 s  ClockTime = 1460 s

Time = 0.00075

Courant Number mean: 0.0255276 max: 0.481982
[INFO] MatrixAssemblyU: 414.552 [ms]
DILUPBiCGStab:  Solving for Ux, Initial residual = 0.0350414, Final residual = 0.00528761, No Iterations 5
DILUPBiCGStab:  Solving for Uy, Initial residual = 0.166648, Final residual = 0.019156, No Iterations 5
DILUPBiCGStab:  Solving for Uz, Initial residual = 0.684662, Final residual = 0.0593857, No Iterations 5
[INFO] MomentumPredictor: 3394.27 [ms]
[INFO] MatrixAssemblyPI: 552.333 [ms]
[INFO] AdjustPhi: 20.485 [ms]
[INFO] ConstrainPressure: 0.003 [ms]
[INFO] MatrixAssemblyPII: 131.159 [ms]
nonePCG:  Solving for p, Initial residual = 0.95585, Final residual = 9.8253e-05, No Iterations 3072
[INFO] SolveP: 172843 [ms]
time step continuity errors : sum local = 1.57542e-08, global = 2.2188e-21, cumulative = 3.12819e-20
[INFO] ContinuityError: 53.418 [ms]
[INFO] CorrectBoundary: 7.649 [ms]
[INFO] PISOStep: 173802 [ms]
[INFO] MatrixAssemblyPI: 542.886 [ms]
[INFO] AdjustPhi: 18.678 [ms]
[INFO] ConstrainPressure: 0.005 [ms]
[INFO] MatrixAssemblyPII: 132.219 [ms]
nonePCG:  Solving for p, Initial residual = 0.879225, Final residual = 9.93872e-05, No Iterations 3069
[INFO] SolveP: 170896 [ms]
time step continuity errors : sum local = 1.61693e-08, global = 3.09355e-21, cumulative = 3.43754e-20
[INFO] ContinuityError: 54.088 [ms]
[INFO] CorrectBoundary: 3.756 [ms]
[INFO] PISOStep: 171841 [ms]
[INFO] TimeStep: 349510 [ms]
ExecutionTime = 1800.06 s  ClockTime = 1810 s

Time = 0.000875

Courant Number mean: 0.0276762 max: 0.60267
[INFO] MatrixAssemblyU: 421.891 [ms]
DILUPBiCGStab:  Solving for Ux, Initial residual = 0.0343173, Final residual = 0.00496816, No Iterations 5
DILUPBiCGStab:  Solving for Uy, Initial residual = 0.170404, Final residual = 0.0182468, No Iterations 5
DILUPBiCGStab:  Solving for Uz, Initial residual = 0.676752, Final residual = 0.0503334, No Iterations 5
[INFO] MomentumPredictor: 3387.49 [ms]
[INFO] MatrixAssemblyPI: 553.048 [ms]
[INFO] AdjustPhi: 18.501 [ms]
[INFO] ConstrainPressure: 0.004 [ms]
[INFO] MatrixAssemblyPII: 131.514 [ms]
nonePCG:  Solving for p, Initial residual = 0.965581, Final residual = 9.86673e-05, No Iterations 3063
[INFO] SolveP: 171778 [ms]
time step continuity errors : sum local = 1.75792e-08, global = 4.70246e-21, cumulative = 3.90779e-20
[INFO] ContinuityError: 58.411 [ms]
[INFO] CorrectBoundary: 4.879 [ms]
[INFO] PISOStep: 172745 [ms]
[INFO] MatrixAssemblyPI: 533.975 [ms]
[INFO] AdjustPhi: 41.776 [ms]
[INFO] ConstrainPressure: 0.006 [ms]
[INFO] MatrixAssemblyPII: 134.269 [ms]
nonePCG:  Solving for p, Initial residual = 0.903354, Final residual = 9.93929e-05, No Iterations 3061
[INFO] SolveP: 171741 [ms]
time step continuity errors : sum local = 1.76521e-08, global = 4.51251e-21, cumulative = 4.35904e-20
[INFO] ContinuityError: 56.042 [ms]
[INFO] CorrectBoundary: 4.099 [ms]
[INFO] PISOStep: 172703 [ms]
[INFO] TimeStep: 349314 [ms]
ExecutionTime = 2147.67 s  ClockTime = 2159 s

Time = 0.001

Courant Number mean: 0.0293992 max: 0.489517
[INFO] MatrixAssemblyU: 417.766 [ms]
DILUPBiCGStab:  Solving for Ux, Initial residual = 0.035108, Final residual = 0.00477599, No Iterations 5
DILUPBiCGStab:  Solving for Uy, Initial residual = 0.162643, Final residual = 0.0158189, No Iterations 5
DILUPBiCGStab:  Solving for Uz, Initial residual = 0.660432, Final residual = 0.0464917, No Iterations 5
[INFO] MomentumPredictor: 3422.31 [ms]
[INFO] MatrixAssemblyPI: 553.992 [ms]
[INFO] AdjustPhi: 17.904 [ms]
[INFO] ConstrainPressure: 0.003 [ms]
[INFO] MatrixAssemblyPII: 128.838 [ms]
nonePCG:  Solving for p, Initial residual = 0.963064, Final residual = 9.90874e-05, No Iterations 3064
[INFO] SolveP: 170768 [ms]
time step continuity errors : sum local = 1.99759e-08, global = 3.81685e-21, cumulative = 4.74073e-20
[INFO] ContinuityError: 55.527 [ms]
[INFO] CorrectBoundary: 4.962 [ms]
[INFO] PISOStep: 171726 [ms]
[INFO] MatrixAssemblyPI: 547.31 [ms]
[INFO] AdjustPhi: 18.024 [ms]
[INFO] ConstrainPressure: 0.003 [ms]
[INFO] MatrixAssemblyPII: 134.981 [ms]
nonePCG:  Solving for p, Initial residual = 0.886599, Final residual = 9.81096e-05, No Iterations 3062
[INFO] SolveP: 171450 [ms]
time step continuity errors : sum local = 2.00471e-08, global = 3.52796e-21, cumulative = 5.09352e-20
[INFO] ContinuityError: 55.171 [ms]
[INFO] CorrectBoundary: 6.006 [ms]
[INFO] PISOStep: 172405 [ms]
[INFO] TimeStep: 348029 [ms]
ExecutionTime = 2493.95 s  ClockTime = 2507 s

Time = 0.001125

Courant Number mean: 0.0311547 max: 0.675193
[INFO] MatrixAssemblyU: 419.441 [ms]
DILUPBiCGStab:  Solving for Ux, Initial residual = 0.0358152, Final residual = 0.00450929, No Iterations 5
DILUPBiCGStab:  Solving for Uy, Initial residual = 0.176971, Final residual = 0.0163014, No Iterations 5
DILUPBiCGStab:  Solving for Uz, Initial residual = 0.670758, Final residual = 0.0441434, No Iterations 5
[INFO] MomentumPredictor: 3392.06 [ms]
[INFO] MatrixAssemblyPI: 550.703 [ms]
[INFO] AdjustPhi: 21.5 [ms]
[INFO] ConstrainPressure: 0.003 [ms]
[INFO] MatrixAssemblyPII: 132.155 [ms]
nonePCG:  Solving for p, Initial residual = 0.970229, Final residual = 9.95697e-05, No Iterations 3060
[INFO] SolveP: 171691 [ms]
time step continuity errors : sum local = 2.25572e-08, global = 4.71839e-21, cumulative = 5.56536e-20
[INFO] ContinuityError: 55.195 [ms]
[INFO] CorrectBoundary: 6.087 [ms]
[INFO] PISOStep: 172648 [ms]
[INFO] MatrixAssemblyPI: 546.307 [ms]
[INFO] AdjustPhi: 18.566 [ms]
[INFO] ConstrainPressure: 0.005 [ms]
[INFO] MatrixAssemblyPII: 133.219 [ms]
nonePCG:  Solving for p, Initial residual = 0.906286, Final residual = 9.99315e-05, No Iterations 3058
[INFO] SolveP: 171083 [ms]
time step continuity errors : sum local = 2.26083e-08, global = 5.02359e-21, cumulative = 6.06772e-20
[INFO] ContinuityError: 61.643 [ms]
[INFO] CorrectBoundary: 4.301 [ms]
[INFO] PISOStep: 172039 [ms]
[INFO] TimeStep: 348555 [ms]
ExecutionTime = 2840.76 s  ClockTime = 2856 s

Time = 0.00125

Courant Number mean: 0.0325506 max: 0.503118
[INFO] MatrixAssemblyU: 416.426 [ms]
DILUPBiCGStab:  Solving for Ux, Initial residual = 0.0385231, Final residual = 0.00457773, No Iterations 5
DILUPBiCGStab:  Solving for Uy, Initial residual = 0.174057, Final residual = 0.0144616, No Iterations 5
DILUPBiCGStab:  Solving for Uz, Initial residual = 0.670645, Final residual = 0.0425838, No Iterations 5
[INFO] MomentumPredictor: 3418.72 [ms]
[INFO] MatrixAssemblyPI: 549.28 [ms]
[INFO] AdjustPhi: 23.306 [ms]
[INFO] ConstrainPressure: 0.003 [ms]
[INFO] MatrixAssemblyPII: 131.317 [ms]
nonePCG:  Solving for p, Initial residual = 0.969292, Final residual = 9.90666e-05, No Iterations 3059
[INFO] SolveP: 170866 [ms]
time step continuity errors : sum local = 2.57251e-08, global = 6.05695e-21, cumulative = 6.67341e-20
[INFO] ContinuityError: 57.032 [ms]
[INFO] CorrectBoundary: 5.82 [ms]
[INFO] PISOStep: 171826 [ms]
[INFO] MatrixAssemblyPI: 543.418 [ms]
[INFO] AdjustPhi: 31.101 [ms]
[INFO] ConstrainPressure: 0.004 [ms]
[INFO] MatrixAssemblyPII: 134.251 [ms]
nonePCG:  Solving for p, Initial residual = 0.893247, Final residual = 9.84681e-05, No Iterations 3058
[INFO] SolveP: 171106 [ms]
time step continuity errors : sum local = 2.58891e-08, global = 4.30567e-21, cumulative = 7.10398e-20
[INFO] ContinuityError: 55.097 [ms]
[INFO] CorrectBoundary: 6.116 [ms]
[INFO] PISOStep: 172067 [ms]
[INFO] TimeStep: 347790 [ms]
ExecutionTime = 3186.87 s  ClockTime = 3204 s

Time = 0.001375

Courant Number mean: 0.0340904 max: 0.784409
[INFO] MatrixAssemblyU: 418.977 [ms]
DILUPBiCGStab:  Solving for Ux, Initial residual = 0.0404884, Final residual = 0.00436362, No Iterations 5
DILUPBiCGStab:  Solving for Uy, Initial residual = 0.19475, Final residual = 0.0156222, No Iterations 5
DILUPBiCGStab:  Solving for Uz, Initial residual = 0.685579, Final residual = 0.0419943, No Iterations 5
[INFO] MomentumPredictor: 3472.08 [ms]
[INFO] MatrixAssemblyPI: 554.676 [ms]
[INFO] AdjustPhi: 19.149 [ms]
[INFO] ConstrainPressure: 0.003 [ms]
[INFO] MatrixAssemblyPII: 130.779 [ms]
nonePCG:  Solving for p, Initial residual = 0.974536, Final residual = 9.80596e-05, No Iterations 3060
[INFO] SolveP: 170350 [ms]
time step continuity errors : sum local = 2.90279e-08, global = 3.33132e-21, cumulative = 7.43711e-20
[INFO] ContinuityError: 55.111 [ms]
[INFO] CorrectBoundary: 4.414 [ms]
[INFO] PISOStep: 171309 [ms]
[INFO] MatrixAssemblyPI: 544.392 [ms]
[INFO] AdjustPhi: 18.757 [ms]
[INFO] ConstrainPressure: 0.003 [ms]
[INFO] MatrixAssemblyPII: 133.452 [ms]
nonePCG:  Solving for p, Initial residual = 0.909191, Final residual = 9.99722e-05, No Iterations 3057
[INFO] SolveP: 171279 [ms]
time step continuity errors : sum local = 2.96036e-08, global = 4.57071e-21, cumulative = 7.89418e-20
[INFO] ContinuityError: 55.407 [ms]
[INFO] CorrectBoundary: 6.871 [ms]
[INFO] PISOStep: 172232 [ms]
[INFO] TimeStep: 347488 [ms]
ExecutionTime = 3532.66 s  ClockTime = 3551 s

Time = 0.0015

Courant Number mean: 0.0352736 max: 0.541819
[INFO] MatrixAssemblyU: 416.546 [ms]
DILUPBiCGStab:  Solving for Ux, Initial residual = 0.0448694, Final residual = 0.00460023, No Iterations 5
DILUPBiCGStab:  Solving for Uy, Initial residual = 0.196734, Final residual = 0.0143735, No Iterations 5
DILUPBiCGStab:  Solving for Uz, Initial residual = 0.689973, Final residual = 0.0414795, No Iterations 5
[INFO] MomentumPredictor: 3389.87 [ms]
[INFO] MatrixAssemblyPI: 548.484 [ms]
[INFO] AdjustPhi: 40.96 [ms]
[INFO] ConstrainPressure: 0.003 [ms]
[INFO] MatrixAssemblyPII: 131.106 [ms]
nonePCG:  Solving for p, Initial residual = 0.974406, Final residual = 9.91298e-05, No Iterations 3041
[INFO] SolveP: 169246 [ms]
time step continuity errors : sum local = 3.38423e-08, global = 7.13553e-21, cumulative = 8.60774e-20
[INFO] ContinuityError: 54.633 [ms]
[INFO] CorrectBoundary: 7.006 [ms]
[INFO] PISOStep: 170226 [ms]
[INFO] MatrixAssemblyPI: 540.986 [ms]
[INFO] AdjustPhi: 50.232 [ms]
[INFO] ConstrainPressure: 0.004 [ms]
[INFO] MatrixAssemblyPII: 130.604 [ms]
nonePCG:  Solving for p, Initial residual = 0.899606, Final residual = 9.97271e-05, No Iterations 3056
[INFO] SolveP: 171525 [ms]
time step continuity errors : sum local = 3.44359e-08, global = 6.08998e-21, cumulative = 9.21673e-20
[INFO] ContinuityError: 55.864 [ms]
[INFO] CorrectBoundary: 4.506 [ms]
[INFO] PISOStep: 172509 [ms]
[INFO] TimeStep: 346596 [ms]
ExecutionTime = 3877.55 s  ClockTime = 3898 s

Time = 0.001625

Courant Number mean: 0.0366905 max: 1.04407
[INFO] MatrixAssemblyU: 418.396 [ms]
DILUPBiCGStab:  Solving for Ux, Initial residual = 0.0483037, Final residual = 0.00449969, No Iterations 5
DILUPBiCGStab:  Solving for Uy, Initial residual = 0.221545, Final residual = 0.0158332, No Iterations 5
DILUPBiCGStab:  Solving for Uz, Initial residual = 0.703925, Final residual = 0.0414436, No Iterations 5
[INFO] MomentumPredictor: 3398.82 [ms]
[INFO] MatrixAssemblyPI: 551.723 [ms]
[INFO] AdjustPhi: 33.291 [ms]
[INFO] ConstrainPressure: 0.004 [ms]
[INFO] MatrixAssemblyPII: 131.371 [ms]
nonePCG:  Solving for p, Initial residual = 0.978042, Final residual = 9.81291e-05, No Iterations 3061
[INFO] SolveP: 171125 [ms]
time step continuity errors : sum local = 3.85379e-08, global = 4.17094e-21, cumulative = 9.63383e-20
[INFO] ContinuityError: 57.723 [ms]
[INFO] CorrectBoundary: 6.423 [ms]
[INFO] PISOStep: 172097 [ms]
[INFO] MatrixAssemblyPI: 542.19 [ms]
[INFO] AdjustPhi: 24.117 [ms]
[INFO] ConstrainPressure: 0.004 [ms]
[INFO] MatrixAssemblyPII: 134.164 [ms]
nonePCG:  Solving for p, Initial residual = 0.911861, Final residual = 9.82556e-05, No Iterations 3059
[INFO] SolveP: 171594 [ms]
time step continuity errors : sum local = 3.86589e-08, global = 6.00277e-21, cumulative = 1.02341e-19
[INFO] ContinuityError: 59.198 [ms]
[INFO] CorrectBoundary: 4.104 [ms]
[INFO] PISOStep: 172551 [ms]
[INFO] TimeStep: 348521 [ms]
ExecutionTime = 4224.38 s  ClockTime = 4246 s

Time = 0.00175

Courant Number mean: 0.03773 max: 0.866656
[INFO] MatrixAssemblyU: 418.568 [ms]
DILUPBiCGStab:  Solving for Ux, Initial residual = 0.0546507, Final residual = 0.0048441, No Iterations 5
DILUPBiCGStab:  Solving for Uy, Initial residual = 0.228895, Final residual = 0.0151409, No Iterations 5
DILUPBiCGStab:  Solving for Uz, Initial residual = 0.709461, Final residual = 0.0412577, No Iterations 5
[INFO] MomentumPredictor: 3409.21 [ms]
[INFO] MatrixAssemblyPI: 551.149 [ms]
[INFO] AdjustPhi: 20.299 [ms]
[INFO] ConstrainPressure: 0.003 [ms]
[INFO] MatrixAssemblyPII: 131.829 [ms]
nonePCG:  Solving for p, Initial residual = 0.978512, Final residual = 9.78081e-05, No Iterations 3062
[INFO] SolveP: 170132 [ms]
time step continuity errors : sum local = 4.45433e-08, global = 5.72843e-21, cumulative = 1.08069e-19
[INFO] ContinuityError: 54.722 [ms]
[INFO] CorrectBoundary: 4.303 [ms]
[INFO] PISOStep: 171089 [ms]
[INFO] MatrixAssemblyPI: 542.804 [ms]
[INFO] AdjustPhi: 17.477 [ms]
[INFO] ConstrainPressure: 0.004 [ms]
[INFO] MatrixAssemblyPII: 132.926 [ms]
nonePCG:  Solving for p, Initial residual = 0.904743, Final residual = 9.93569e-05, No Iterations 3059
[INFO] SolveP: 173731 [ms]
time step continuity errors : sum local = 4.57279e-08, global = 5.14996e-21, cumulative = 1.13219e-19
[INFO] ContinuityError: 55.386 [ms]
[INFO] CorrectBoundary: 4.139 [ms]
[INFO] PISOStep: 174676 [ms]
[INFO] TimeStep: 349656 [ms]
ExecutionTime = 4572.29 s  ClockTime = 4596 s

Time = 0.001875

Courant Number mean: 0.0390862 max: 1.48105
[INFO] MatrixAssemblyU: 415.226 [ms]
DILUPBiCGStab:  Solving for Ux, Initial residual = 0.0598523, Final residual = 0.00489554, No Iterations 5
DILUPBiCGStab:  Solving for Uy, Initial residual = 0.256818, Final residual = 0.0167243, No Iterations 5
DILUPBiCGStab:  Solving for Uz, Initial residual = 0.719896, Final residual = 0.0411932, No Iterations 5
[INFO] MomentumPredictor: 3756.12 [ms]
[INFO] MatrixAssemblyPI: 548.627 [ms]
[INFO] AdjustPhi: 20.557 [ms]
[INFO] ConstrainPressure: 0.003 [ms]
[INFO] MatrixAssemblyPII: 131.608 [ms]
nonePCG:  Solving for p, Initial residual = 0.980793, Final residual = 9.92509e-05, No Iterations 3062
[INFO] SolveP: 171096 [ms]
time step continuity errors : sum local = 5.23841e-08, global = 1.1015e-20, cumulative = 1.24234e-19
[INFO] ContinuityError: 55.506 [ms]
[INFO] CorrectBoundary: 7.576 [ms]
[INFO] PISOStep: 172049 [ms]
[INFO] MatrixAssemblyPI: 537.477 [ms]
[INFO] AdjustPhi: 37.953 [ms]
[INFO] ConstrainPressure: 0.004 [ms]
[INFO] MatrixAssemblyPII: 132.604 [ms]
nonePCG:  Solving for p, Initial residual = 0.913717, Final residual = 9.90784e-05, No Iterations 3060
[INFO] SolveP: 171390 [ms]
time step continuity errors : sum local = 5.2462e-08, global = 4.84586e-21, cumulative = 1.2908e-19
[INFO] ContinuityError: 55.592 [ms]
[INFO] CorrectBoundary: 4.457 [ms]
[INFO] PISOStep: 172356 [ms]
[INFO] TimeStep: 348639 [ms]
ExecutionTime = 4919.22 s  ClockTime = 4944 s

Time = 0.002

Courant Number mean: 0.0400389 max: 1.41966
[INFO] MatrixAssemblyU: 417.676 [ms]
DILUPBiCGStab:  Solving for Ux, Initial residual = 0.0687774, Final residual = 0.00536338, No Iterations 5
DILUPBiCGStab:  Solving for Uy, Initial residual = 0.269868, Final residual = 0.0165217, No Iterations 5
DILUPBiCGStab:  Solving for Uz, Initial residual = 0.724711, Final residual = 0.0411495, No Iterations 5
[INFO] MomentumPredictor: 3434.12 [ms]
[INFO] MatrixAssemblyPI: 548.839 [ms]
[INFO] AdjustPhi: 21.685 [ms]
[INFO] ConstrainPressure: 0.003 [ms]
[INFO] MatrixAssemblyPII: 131.861 [ms]
nonePCG:  Solving for p, Initial residual = 0.981697, Final residual = 9.85778e-05, No Iterations 3064
[INFO] SolveP: 170609 [ms]
time step continuity errors : sum local = 6.06207e-08, global = 3.21535e-21, cumulative = 1.32296e-19
[INFO] ContinuityError: 56.27 [ms]
[INFO] CorrectBoundary: 4.398 [ms]
[INFO] PISOStep: 171564 [ms]
[INFO] MatrixAssemblyPI: 544.814 [ms]
[INFO] AdjustPhi: 18.177 [ms]
[INFO] ConstrainPressure: 0.005 [ms]
[INFO] MatrixAssemblyPII: 134.97 [ms]
nonePCG:  Solving for p, Initial residual = 0.908794, Final residual = 9.96173e-05, No Iterations 3061
[INFO] SolveP: 171995 [ms]
time step continuity errors : sum local = 6.18658e-08, global = 6.01225e-21, cumulative = 1.38308e-19
[INFO] ContinuityError: 54.842 [ms]
[INFO] CorrectBoundary: 3.773 [ms]
[INFO] PISOStep: 172946 [ms]
[INFO] TimeStep: 348416 [ms]
ExecutionTime = 5265.93 s  ClockTime = 5293 s

Time = 0.002125

Courant Number mean: 0.041387 max: 2.15354
[INFO] MatrixAssemblyU: 419.014 [ms]
DILUPBiCGStab:  Solving for Ux, Initial residual = 0.0762094, Final residual = 0.00558991, No Iterations 5
DILUPBiCGStab:  Solving for Uy, Initial residual = 0.30044, Final residual = 0.0181912, No Iterations 5
DILUPBiCGStab:  Solving for Uz, Initial residual = 0.731791, Final residual = 0.0410692, No Iterations 5
[INFO] MomentumPredictor: 3429.43 [ms]
[INFO] MatrixAssemblyPI: 551.933 [ms]
[INFO] AdjustPhi: 19.752 [ms]
[INFO] ConstrainPressure: 0.004 [ms]
[INFO] MatrixAssemblyPII: 130.964 [ms]
nonePCG:  Solving for p, Initial residual = 0.982855, Final residual = 9.89253e-05, No Iterations 3064
[INFO] SolveP: 170981 [ms]
time step continuity errors : sum local = 7.10274e-08, global = 6.34034e-21, cumulative = 1.44648e-19
[INFO] ContinuityError: 55.888 [ms]
[INFO] CorrectBoundary: 4.545 [ms]
[INFO] PISOStep: 171943 [ms]
[INFO] MatrixAssemblyPI: 541.017 [ms]
[INFO] AdjustPhi: 20.613 [ms]
[INFO] ConstrainPressure: 0.003 [ms]
[INFO] MatrixAssemblyPII: 133.341 [ms]
nonePCG:  Solving for p, Initial residual = 0.914993, Final residual = 9.80928e-05, No Iterations 3062
[INFO] SolveP: 171983 [ms]
time step continuity errors : sum local = 7.07463e-08, global = 6.40407e-21, cumulative = 1.51052e-19
[INFO] ContinuityError: 52.574 [ms]
[INFO] CorrectBoundary: 3.143 [ms]
[INFO] PISOStep: 172942 [ms]
[INFO] TimeStep: 348791 [ms]
ExecutionTime = 5612.94 s  ClockTime = 5642 s

Time = 0.00225

Courant Number mean: 0.0423104 max: 2.30323
[INFO] MatrixAssemblyU: 444.727 [ms]
DILUPBiCGStab:  Solving for Ux, Initial residual = 0.0886873, Final residual = 0.0062456, No Iterations 5
DILUPBiCGStab:  Solving for Uy, Initial residual = 0.319482, Final residual = 0.0184283, No Iterations 5
DILUPBiCGStab:  Solving for Uz, Initial residual = 0.735455, Final residual = 0.040979, No Iterations 5
[INFO] MomentumPredictor: 3403.32 [ms]
[INFO] MatrixAssemblyPI: 549.106 [ms]
[INFO] AdjustPhi: 46.29 [ms]
[INFO] ConstrainPressure: 0.003 [ms]
[INFO] MatrixAssemblyPII: 131.825 [ms]
nonePCG:  Solving for p, Initial residual = 0.984108, Final residual = 9.91632e-05, No Iterations 3067
[INFO] SolveP: 171437 [ms]
time step continuity errors : sum local = 8.34487e-08, global = 2.71398e-21, cumulative = 1.53766e-19
[INFO] ContinuityError: 55.025 [ms]
[INFO] CorrectBoundary: 6.373 [ms]
[INFO] PISOStep: 172422 [ms]
[INFO] MatrixAssemblyPI: 542.683 [ms]
[INFO] AdjustPhi: 21.541 [ms]
[INFO] ConstrainPressure: 0.005 [ms]
[INFO] MatrixAssemblyPII: 133.666 [ms]
nonePCG:  Solving for p, Initial residual = 0.911939, Final residual = 9.89968e-05, No Iterations 3064
[INFO] SolveP: 171725 [ms]
time step continuity errors : sum local = 8.40906e-08, global = 6.219e-21, cumulative = 1.59985e-19
[INFO] ContinuityError: 55.667 [ms]
[INFO] CorrectBoundary: 4.497 [ms]
[INFO] PISOStep: 172676 [ms]
[INFO] TimeStep: 349001 [ms]
ExecutionTime = 5960.18 s  ClockTime = 5991 s

Time = 0.002375

Courant Number mean: 0.0437067 max: 3.18606
[INFO] MatrixAssemblyU: 420.741 [ms]
DILUPBiCGStab:  Solving for Ux, Initial residual = 0.0990538, Final residual = 0.00666024, No Iterations 5
DILUPBiCGStab:  Solving for Uy, Initial residual = 0.351662, Final residual = 0.0201712, No Iterations 5
DILUPBiCGStab:  Solving for Uz, Initial residual = 0.740244, Final residual = 0.0409182, No Iterations 5
[INFO] MomentumPredictor: 3396.49 [ms]
[INFO] MatrixAssemblyPI: 550.706 [ms]
[INFO] AdjustPhi: 19.82 [ms]
[INFO] ConstrainPressure: 0.003 [ms]
[INFO] MatrixAssemblyPII: 129.317 [ms]
nonePCG:  Solving for p, Initial residual = 0.984587, Final residual = 9.97481e-05, No Iterations 3068
[INFO] SolveP: 171505 [ms]
time step continuity errors : sum local = 9.86962e-08, global = -1.79214e-22, cumulative = 1.59806e-19
[INFO] ContinuityError: 58.791 [ms]
[INFO] CorrectBoundary: 4.724 [ms]
[INFO] PISOStep: 172465 [ms]
[INFO] MatrixAssemblyPI: 544.118 [ms]
[INFO] AdjustPhi: 20.72 [ms]
[INFO] ConstrainPressure: 0.004 [ms]
[INFO] MatrixAssemblyPII: 133.929 [ms]
nonePCG:  Solving for p, Initial residual = 0.916025, Final residual = 9.83585e-05, No Iterations 3066
[INFO] SolveP: 171181 [ms]
time step continuity errors : sum local = 9.78637e-08, global = 5.56581e-21, cumulative = 1.65372e-19
[INFO] ContinuityError: 55.123 [ms]
[INFO] CorrectBoundary: 3.273 [ms]
[INFO] PISOStep: 172137 [ms]
[INFO] TimeStep: 348475 [ms]
ExecutionTime = 6306.94 s  ClockTime = 6339 s

Time = 0.0025

Courant Number mean: 0.0446683 max: 3.69803
[INFO] MatrixAssemblyU: 419.729 [ms]
DILUPBiCGStab:  Solving for Ux, Initial residual = 0.116355, Final residual = 0.00758296, No Iterations 5
DILUPBiCGStab:  Solving for Uy, Initial residual = 0.375848, Final residual = 0.0207736, No Iterations 5
DILUPBiCGStab:  Solving for Uz, Initial residual = 0.742693, Final residual = 0.0408369, No Iterations 5
[INFO] MomentumPredictor: 3382.07 [ms]
[INFO] MatrixAssemblyPI: 552.941 [ms]
[INFO] AdjustPhi: 18.145 [ms]
[INFO] ConstrainPressure: 0.004 [ms]
[INFO] MatrixAssemblyPII: 130.636 [ms]
nonePCG:  Solving for p, Initial residual = 0.985629, Final residual = 9.89067e-05, No Iterations 3069
[INFO] SolveP: 171048 [ms]
time step continuity errors : sum local = 1.15388e-07, global = 1.08397e-20, cumulative = 1.76212e-19
[INFO] ContinuityError: 55.698 [ms]
[INFO] CorrectBoundary: 5.976 [ms]
[INFO] PISOStep: 172004 [ms]
[INFO] MatrixAssemblyPI: 544.55 [ms]
[INFO] AdjustPhi: 38.936 [ms]
[INFO] ConstrainPressure: 0.004 [ms]
[INFO] MatrixAssemblyPII: 133.255 [ms]
nonePCG:  Solving for p, Initial residual = 0.914061, Final residual = 9.83968e-05, No Iterations 3067
[INFO] SolveP: 171334 [ms]
time step continuity errors : sum local = 1.15838e-07, global = 6.02198e-21, cumulative = 1.82234e-19
[INFO] ContinuityError: 55.114 [ms]
[INFO] CorrectBoundary: 5.895 [ms]
[INFO] PISOStep: 172311 [ms]
[INFO] TimeStep: 348175 [ms]
ExecutionTime = 6653.36 s  ClockTime = 6687 s

End

Finalising parallel run
