/*---------------------------------------------------------------------------*\
| =========                 |                                                 |
| \\      /  F ield         | OpenFOAM: The Open Source CFD Toolbox           |
|  \\    /   O peration     | Version:  2306                                  |
|   \\  /    A nd           | Website:  www.openfoam.com                      |
|    \\/     M anipulation  |                                                 |
\*---------------------------------------------------------------------------*/
Build  : c423ebec-20231012 OPENFOAM=2306 version=v2306
Arch   : "LSB;label=32;scalar=64"
Exec   : icoFoam -parallel -case /hkfs/work/workspace/scratch/eq4036-l3d/workspace/cba3ebea10b56b348ba35c88cda933c4/case
Date   : Jan 10 2024
Time   : 21:59:45
Host   : hkn0412.localdomain
PID    : 76652
I/O    : uncollated
Case   : /hkfs/work/workspace/scratch/eq4036-l3d/workspace/cba3ebea10b56b348ba35c88cda933c4/case
nProcs : 16
Hosts  :
(
    (hkn0412.localdomain 16)
)
Pstream initialized with:
    floatTransfer      : false
    nProcsSimpleSum    : 0
    nonBlockingExchange: 0 (tuning: 0)
    exchange algorithm : -1
    commsType          : nonBlocking
    polling iterations : 0
trapFpe: Floating point exception trapping enabled (FOAM_SIGFPE).
fileModificationChecking : Monitoring run-time modified files using timeStampMaster (fileModificationSkew 5, maxFileModificationPolls 20)
allowSystemOperations : Allowing user-supplied system call operations

// * * * * * * * * * * * * * * * * * * * * * * * * * * * * * * * * * * * * * //
Create time

--> FOAM Warning : 
    From void* Foam::dlLibraryTable::openLibrary(const Foam::fileName&, bool)
    in file db/dynamicLibrary/dlLibraryTable/dlLibraryTable.C at line 188
    Could not load "libpetscFoam.so"
libpetscFoam.so: cannot open shared object file: No such file or directory
Create mesh for time = 0


PISO: Operating solver in PISO mode

Reading transportProperties

Reading field p

Reading field U

Reading/calculating face flux field phi


Starting time loop

Time = 0.00025

Courant Number mean: 8.24341e-18 max: 2.08167e-14
[INFO] MatrixAssemblyU: 153.845 [ms]
DILUPBiCGStab:  Solving for Ux, Initial residual = 1, Final residual = 0.00994539, No Iterations 5
DILUPBiCGStab:  Solving for Uy:  solution singularity
DILUPBiCGStab:  Solving for Uz:  solution singularity
[INFO] MomentumPredictor: 506.961 [ms]
[INFO] MatrixAssemblyPI: 141.827 [ms]
[INFO] AdjustPhi: 6.447 [ms]
[INFO] ConstrainPressure: 0.005 [ms]
[INFO] MatrixAssemblyPII: 39.954 [ms]
[OGL LOG][lduLduBase.H:119] Initialising OGL
	OGL commit:  e75313f+
	Branch: dev 
	Build type: Debug
	Ginkgo version: 1.8.0 ( develop)
	Ginkgo commit: sparse-communicator
	MPI is GPU aware: 1
	Forces host buffer based communication: 0
	CPU ranks per GPU: 1
	Matrix format: Ell
	End OGL_INFO
[OGL LOG][Proc: 0]: global_index_init: 0.101 [ms]
[OGL LOG][Proc: 0]p_local_cols: call_init: 1.054 [ms]
[OGL LOG][Proc: 0]p_local_rows: call_init: 0.497 [ms]
[OGL LOG][Proc: 0]p_local_ldu_map: call_init: 0.376 [ms]
[OGL LOG][Proc: 0]p_local_coeffs: call_init: 4.346 [ms]
[OGL LOG][Proc: 0]p_non_local_cols: call_init: 0.304 [ms]
[OGL LOG][Proc: 0]p_non_local_rows: call_init: 0.301 [ms]
[OGL LOG][Proc: 0]p_non_local_ldu_map: call_init: 0.232 [ms]
[OGL LOG][Proc: 0]p_non_local_coeffs: call_init: 0.236 [ms]
[OGL LOG][Proc: 0]p: init_local_sparsity_pattern: 12909.5 [ms]
[OGL LOG][Proc: 0]p: init_non_local_sparsity_pattern: 100.367 [ms]
[OGL LOG][Proc: 0]p: update_local_matrix_data: 47.897 [ms]
[OGL LOG][Proc: 0]p: update_non_local_matrix_data: 0.574 [ms]
[OGL LOG][Proc: 0]device_partition: call_init: 0.181 [ms]
[OGL LOG][Proc: 0]p_matrix: call_init: 86.001 [ms]
[OGL LOG][Proc: 0]p_rhs: call_init: 1.793 [ms]
[OGL LOG][Proc: 0]p_solution: call_init: 1.339 [ms]
[OGL LOG][Preconditioner.H:121] Generate preconditioner BJ MaxBlockSize 1
[OGL LOG][Proc: 0]p: init_precond: 29.545 [ms]
[OGL LOG][StoppingCriterion.H:239] Creating stopping criterion with minIter 0 frequency 1
[OGL LOG][Proc: 0]p: generate_solver: 0.429 [ms]
[OGL LOG][Proc: 0]p: solve: 11614 [ms]
[OGL LOG][Proc: 0]p: copy_x_back: 2.337 [ms]
[OGL LOG][lduLduBase.H:330] 
Statistics:
	Time per iteration: 7272 [mu s]
	Time per residual norm calculation: 12060.000000 [mu s]
	Time per iteration and DOF: 0.909000 [ns]
	Retrieve results bandwidth 1.711000 [GByte/s]
[OGL LOG][Proc: 0]p: solve_multi_gpu: 11814 [ms]
BJcudaGKOCG:  Solving for p, Initial residual = 1, Final residual = 9.81733e-05, No Iterations 1597
[INFO] SolveP: 27862.8 [ms]
time step continuity errors : sum local = 7.53636e-09, global = -1.41998e-21, cumulative = -1.41998e-21
[INFO] ContinuityError: 14.771 [ms]
[INFO] CorrectBoundary: 0.401 [ms]
[INFO] PISOStep: 28114.9 [ms]
[INFO] MatrixAssemblyPI: 136.705 [ms]
[INFO] AdjustPhi: 6.286 [ms]
[INFO] ConstrainPressure: 0.003 [ms]
[INFO] MatrixAssemblyPII: 39.779 [ms]
[OGL LOG][Proc: 0]: global_index_init: 0.257 [ms]
[OGL LOG][Proc: 0]p_local_coeffs: call_update: 0.001 [ms]
[OGL LOG][Proc: 0]p_non_local_coeffs: call_update: 0 [ms]
[OGL LOG][Proc: 0]p: update_local_matrix_data: 26.273 [ms]
[OGL LOG][Proc: 0]p: update_non_local_matrix_data: 0.571 [ms]
[OGL LOG][Proc: 0]p: regenerate_distributed_matrix: 84.836 [ms]
[OGL LOG][Proc: 0]p_matrix: call_update: 87.098 [ms]
[OGL LOG][Proc: 0]p_rhs: call_update: 0.575 [ms]
[OGL LOG][Preconditioner.H:121] Generate preconditioner BJ MaxBlockSize 1
[OGL LOG][Proc: 0]p: init_precond: 2.651 [ms]
[OGL LOG][StoppingCriterion.H:239] Creating stopping criterion with minIter 0 frequency 1
[OGL LOG][Proc: 0]p: generate_solver: 0.016 [ms]
[OGL LOG][Proc: 0]p: solve: 11374.9 [ms]
[OGL LOG][Proc: 0]p: copy_x_back: 2.237 [ms]
[OGL LOG][lduLduBase.H:330] 
Statistics:
	Time per iteration: 7194 [mu s]
	Time per residual norm calculation: 2483.000000 [mu s]
	Time per iteration and DOF: 0.899250 [ns]
	Retrieve results bandwidth 1.788000 [GByte/s]
[OGL LOG][Proc: 0]p: solve_multi_gpu: 11473.4 [ms]
BJcudaGKOCG:  Solving for p, Initial residual = 0.786384, Final residual = 9.70781e-05, No Iterations 1581
[INFO] SolveP: 11506.2 [ms]
time step continuity errors : sum local = 9.31528e-09, global = -1.22577e-21, cumulative = -2.64574e-21
[INFO] ContinuityError: 15.06 [ms]
[INFO] CorrectBoundary: 0.382 [ms]
[INFO] PISOStep: 11753.3 [ms]
[INFO] TimeStep: 40548.9 [ms]
ExecutionTime = 38.93 s  ClockTime = 41 s

Time = 0.0005

Courant Number mean: 0.0159459 max: 0.412549
[INFO] MatrixAssemblyU: 128.195 [ms]
DILUPBiCGStab:  Solving for Ux, Initial residual = 0.129572, Final residual = 0.00549868, No Iterations 5
DILUPBiCGStab:  Solving for Uy, Initial residual = 0.426965, Final residual = 0.0140635, No Iterations 5
DILUPBiCGStab:  Solving for Uz, Initial residual = 0.987073, Final residual = 0.0342238, No Iterations 5
[INFO] MomentumPredictor: 938.194 [ms]
[INFO] MatrixAssemblyPI: 137.381 [ms]
[INFO] AdjustPhi: 6.817 [ms]
[INFO] ConstrainPressure: 0.003 [ms]
[INFO] MatrixAssemblyPII: 39.145 [ms]
[OGL LOG][Proc: 0]: global_index_init: 0.131 [ms]
[OGL LOG][Proc: 0]p_local_coeffs: call_update: 0 [ms]
[OGL LOG][Proc: 0]p_non_local_coeffs: call_update: 0 [ms]
[OGL LOG][Proc: 0]p: update_local_matrix_data: 26.841 [ms]
[OGL LOG][Proc: 0]p: update_non_local_matrix_data: 0.583 [ms]
[OGL LOG][Proc: 0]p: regenerate_distributed_matrix: 85.984 [ms]
[OGL LOG][Proc: 0]p_matrix: call_update: 88.367 [ms]
[OGL LOG][Proc: 0]p_rhs: call_update: 1.402 [ms]
[OGL LOG][Preconditioner.H:121] Generate preconditioner BJ MaxBlockSize 1
[OGL LOG][Proc: 0]p: init_precond: 2.819 [ms]
[OGL LOG][StoppingCriterion.H:239] Creating stopping criterion with minIter 948 frequency 17
[OGL LOG][Proc: 0]p: generate_solver: 0.016 [ms]
[OGL LOG][Proc: 0]p: solve: 7596.36 [ms]
[OGL LOG][Proc: 0]p: copy_x_back: 2.019 [ms]
[OGL LOG][lduLduBase.H:330] 
Statistics:
	Time per iteration: 4801 [mu s]
	Time per residual norm calculation: 2494.000000 [mu s]
	Time per iteration and DOF: 0.600125 [ns]
	Retrieve results bandwidth 1.981000 [GByte/s]
[OGL LOG][Proc: 0]p: solve_multi_gpu: 7696.38 [ms]
BJcudaGKOCG:  Solving for p, Initial residual = 0.825151, Final residual = 6.56538e-05, No Iterations 1582
[INFO] SolveP: 7729.72 [ms]
time step continuity errors : sum local = 9.67053e-09, global = 1.49161e-21, cumulative = -1.15413e-21
[INFO] ContinuityError: 14.619 [ms]
[INFO] CorrectBoundary: 0.489 [ms]
[INFO] PISOStep: 7978.6 [ms]
[INFO] MatrixAssemblyPI: 136.824 [ms]
[INFO] AdjustPhi: 6.263 [ms]
[INFO] ConstrainPressure: 0.003 [ms]
[INFO] MatrixAssemblyPII: 40.854 [ms]
[OGL LOG][Proc: 0]: global_index_init: 0.071 [ms]
[OGL LOG][Proc: 0]p_local_coeffs: call_update: 0 [ms]
[OGL LOG][Proc: 0]p_non_local_coeffs: call_update: 0 [ms]
[OGL LOG][Proc: 0]p: update_local_matrix_data: 26.472 [ms]
[OGL LOG][Proc: 0]p: update_non_local_matrix_data: 0.568 [ms]
[OGL LOG][Proc: 0]p: regenerate_distributed_matrix: 89.745 [ms]
[OGL LOG][Proc: 0]p_matrix: call_update: 91.817 [ms]
[OGL LOG][Proc: 0]p_rhs: call_update: 0.71 [ms]
[OGL LOG][Preconditioner.H:121] Generate preconditioner BJ MaxBlockSize 1
[OGL LOG][Proc: 0]p: init_precond: 3.211 [ms]
[OGL LOG][StoppingCriterion.H:239] Creating stopping criterion with minIter 949 frequency 25
[OGL LOG][Proc: 0]p: generate_solver: 0.015 [ms]
[OGL LOG][Proc: 0]p: solve: 7540.56 [ms]
[OGL LOG][Proc: 0]p: copy_x_back: 2.044 [ms]
[OGL LOG][lduLduBase.H:330] 
Statistics:
	Time per iteration: 4784 [mu s]
	Time per residual norm calculation: 2642.000000 [mu s]
	Time per iteration and DOF: 0.598000 [ns]
	Retrieve results bandwidth 1.956000 [GByte/s]
[OGL LOG][Proc: 0]p: solve_multi_gpu: 7644.39 [ms]
BJcudaGKOCG:  Solving for p, Initial residual = 0.768305, Final residual = 7.29708e-05, No Iterations 1576
[INFO] SolveP: 7676.94 [ms]
time step continuity errors : sum local = 1.09418e-08, global = 7.81272e-22, cumulative = -3.72855e-22
[INFO] ContinuityError: 14.99 [ms]
[INFO] CorrectBoundary: 0.296 [ms]
[INFO] PISOStep: 7925.18 [ms]
[INFO] TimeStep: 16985.7 [ms]
ExecutionTime = 55.88 s  ClockTime = 58 s

Time = 0.00075

Courant Number mean: 0.024329 max: 0.472011
[INFO] MatrixAssemblyU: 127.046 [ms]
DILUPBiCGStab:  Solving for Ux, Initial residual = 0.0547788, Final residual = 0.00187254, No Iterations 5
DILUPBiCGStab:  Solving for Uy, Initial residual = 0.182219, Final residual = 0.00762596, No Iterations 5
DILUPBiCGStab:  Solving for Uz, Initial residual = 0.810742, Final residual = 0.0252265, No Iterations 5
[INFO] MomentumPredictor: 939.621 [ms]
[INFO] MatrixAssemblyPI: 140.1 [ms]
[INFO] AdjustPhi: 7.081 [ms]
[INFO] ConstrainPressure: 0.003 [ms]
[INFO] MatrixAssemblyPII: 39.622 [ms]
[OGL LOG][Proc: 0]: global_index_init: 0.13 [ms]
[OGL LOG][Proc: 0]p_local_coeffs: call_update: 0 [ms]
[OGL LOG][Proc: 0]p_non_local_coeffs: call_update: 0 [ms]
[OGL LOG][Proc: 0]p: update_local_matrix_data: 26.14 [ms]
[OGL LOG][Proc: 0]p: update_non_local_matrix_data: 0.538 [ms]
[OGL LOG][Proc: 0]p: regenerate_distributed_matrix: 84.028 [ms]
[OGL LOG][Proc: 0]p_matrix: call_update: 85.895 [ms]
[OGL LOG][Proc: 0]p_rhs: call_update: 0.858 [ms]
[OGL LOG][Preconditioner.H:121] Generate preconditioner BJ MaxBlockSize 1
[OGL LOG][Proc: 0]p: init_precond: 3.309 [ms]
[OGL LOG][StoppingCriterion.H:239] Creating stopping criterion with minIter 945 frequency 25
[OGL LOG][Proc: 0]p: generate_solver: 0.018 [ms]
[OGL LOG][Proc: 0]p: solve: 7537.46 [ms]
[OGL LOG][Proc: 0]p: copy_x_back: 1.797 [ms]
[OGL LOG][lduLduBase.H:330] 
Statistics:
	Time per iteration: 4782 [mu s]
	Time per residual norm calculation: 2644.000000 [mu s]
	Time per iteration and DOF: 0.597750 [ns]
	Retrieve results bandwidth 2.225000 [GByte/s]
[OGL LOG][Proc: 0]p: solve_multi_gpu: 7635.13 [ms]
BJcudaGKOCG:  Solving for p, Initial residual = 0.849286, Final residual = 6.2072e-05, No Iterations 1576
[INFO] SolveP: 7667.08 [ms]
time step continuity errors : sum local = 8.34568e-09, global = -1.42693e-21, cumulative = -1.79979e-21
[INFO] ContinuityError: 15.882 [ms]
[INFO] CorrectBoundary: 0.343 [ms]
[INFO] PISOStep: 7917.9 [ms]
[INFO] MatrixAssemblyPI: 134.981 [ms]
[INFO] AdjustPhi: 6.3 [ms]
[INFO] ConstrainPressure: 0.003 [ms]
[INFO] MatrixAssemblyPII: 40.196 [ms]
[OGL LOG][Proc: 0]: global_index_init: 0.106 [ms]
[OGL LOG][Proc: 0]p_local_coeffs: call_update: 0 [ms]
[OGL LOG][Proc: 0]p_non_local_coeffs: call_update: 0 [ms]
[OGL LOG][Proc: 0]p: update_local_matrix_data: 26.787 [ms]
[OGL LOG][Proc: 0]p: update_non_local_matrix_data: 0.598 [ms]
[OGL LOG][Proc: 0]p: regenerate_distributed_matrix: 85.651 [ms]
[OGL LOG][Proc: 0]p_matrix: call_update: 87.541 [ms]
[OGL LOG][Proc: 0]p_rhs: call_update: 1.764 [ms]
[OGL LOG][Preconditioner.H:121] Generate preconditioner BJ MaxBlockSize 1
[OGL LOG][Proc: 0]p: init_precond: 3.03 [ms]
[OGL LOG][StoppingCriterion.H:239] Creating stopping criterion with minIter 945 frequency 25
[OGL LOG][Proc: 0]p: generate_solver: 0.016 [ms]
[OGL LOG][Proc: 0]p: solve: 7538.44 [ms]
[OGL LOG][Proc: 0]p: copy_x_back: 1.511 [ms]
[OGL LOG][lduLduBase.H:330] 
Statistics:
	Time per iteration: 4783 [mu s]
	Time per residual norm calculation: 2342.000000 [mu s]
	Time per iteration and DOF: 0.597875 [ns]
	Retrieve results bandwidth 2.647000 [GByte/s]
[OGL LOG][Proc: 0]p: solve_multi_gpu: 7634.56 [ms]
BJcudaGKOCG:  Solving for p, Initial residual = 0.815695, Final residual = 5.63458e-05, No Iterations 1576
[INFO] SolveP: 7669.57 [ms]
time step continuity errors : sum local = 7.41293e-09, global = -9.77992e-22, cumulative = -2.77778e-21
[INFO] ContinuityError: 16.705 [ms]
[INFO] CorrectBoundary: 0.316 [ms]
[INFO] PISOStep: 7914.01 [ms]
[INFO] TimeStep: 16914.6 [ms]
ExecutionTime = 72.76 s  ClockTime = 75 s

Time = 0.001

Courant Number mean: 0.0291952 max: 0.467755
[INFO] MatrixAssemblyU: 128.724 [ms]
DILUPBiCGStab:  Solving for Ux, Initial residual = 0.0346913, Final residual = 0.00124165, No Iterations 5
DILUPBiCGStab:  Solving for Uy, Initial residual = 0.1291, Final residual = 0.0047322, No Iterations 5
DILUPBiCGStab:  Solving for Uz, Initial residual = 0.610771, Final residual = 0.0152, No Iterations 5
[INFO] MomentumPredictor: 946.184 [ms]
[INFO] MatrixAssemblyPI: 140.314 [ms]
[INFO] AdjustPhi: 6.425 [ms]
[INFO] ConstrainPressure: 0.002 [ms]
[INFO] MatrixAssemblyPII: 39.613 [ms]
[OGL LOG][Proc: 0]: global_index_init: 0.023 [ms]
[OGL LOG][Proc: 0]p_local_coeffs: call_update: 0 [ms]
[OGL LOG][Proc: 0]p_non_local_coeffs: call_update: 0 [ms]
[OGL LOG][Proc: 0]p: update_local_matrix_data: 26.716 [ms]
[OGL LOG][Proc: 0]p: update_non_local_matrix_data: 0.572 [ms]
[OGL LOG][Proc: 0]p: regenerate_distributed_matrix: 81.804 [ms]
[OGL LOG][Proc: 0]p_matrix: call_update: 82.729 [ms]
[OGL LOG][Proc: 0]p_rhs: call_update: 3.538 [ms]
[OGL LOG][Preconditioner.H:121] Generate preconditioner BJ MaxBlockSize 1
[OGL LOG][Proc: 0]p: init_precond: 3.007 [ms]
[OGL LOG][StoppingCriterion.H:239] Creating stopping criterion with minIter 945 frequency 17
[OGL LOG][Proc: 0]p: generate_solver: 0.018 [ms]
[OGL LOG][Proc: 0]p: solve: 4533.84 [ms]
[OGL LOG][Proc: 0]p: copy_x_back: 1.783 [ms]
[OGL LOG][lduLduBase.H:330] 
Statistics:
	Time per iteration: 4757 [mu s]
	Time per residual norm calculation: 2639.000000 [mu s]
	Time per iteration and DOF: 0.594625 [ns]
	Retrieve results bandwidth 2.243000 [GByte/s]
[OGL LOG][Proc: 0]p: solve_multi_gpu: 4629.18 [ms]
BJcudaGKOCG:  Solving for p, Initial residual = 0.770566, Final residual = 5.02331e-05, No Iterations 953
[INFO] SolveP: 4662.15 [ms]
time step continuity errors : sum local = 6.59238e-09, global = 5.05692e-22, cumulative = -2.27209e-21
[INFO] ContinuityError: 15.429 [ms]
[INFO] CorrectBoundary: 0.909 [ms]
[INFO] PISOStep: 4911.18 [ms]
[INFO] MatrixAssemblyPI: 134.131 [ms]
[INFO] AdjustPhi: 7.003 [ms]
[INFO] ConstrainPressure: 0.003 [ms]
[INFO] MatrixAssemblyPII: 39.089 [ms]
[OGL LOG][Proc: 0]: global_index_init: 0.16 [ms]
[OGL LOG][Proc: 0]p_local_coeffs: call_update: 0 [ms]
[OGL LOG][Proc: 0]p_non_local_coeffs: call_update: 0 [ms]
[OGL LOG][Proc: 0]p: update_local_matrix_data: 27.441 [ms]
[OGL LOG][Proc: 0]p: update_non_local_matrix_data: 0.525 [ms]
[OGL LOG][Proc: 0]p: regenerate_distributed_matrix: 89.462 [ms]
[OGL LOG][Proc: 0]p_matrix: call_update: 91.691 [ms]
[OGL LOG][Proc: 0]p_rhs: call_update: 0.926 [ms]
[OGL LOG][Preconditioner.H:121] Generate preconditioner BJ MaxBlockSize 1
[OGL LOG][Proc: 0]p: init_precond: 2.599 [ms]
[OGL LOG][StoppingCriterion.H:239] Creating stopping criterion with minIter 571 frequency 19
[OGL LOG][Proc: 0]p: generate_solver: 0.015 [ms]
[OGL LOG][Proc: 0]p: solve: 3653.8 [ms]
[OGL LOG][Proc: 0]p: copy_x_back: 1.849 [ms]
[OGL LOG][lduLduBase.H:330] 
Statistics:
	Time per iteration: 4801 [mu s]
	Time per residual norm calculation: 2485.000000 [mu s]
	Time per iteration and DOF: 0.600125 [ns]
	Retrieve results bandwidth 2.163000 [GByte/s]
[OGL LOG][Proc: 0]p: solve_multi_gpu: 3756.06 [ms]
BJcudaGKOCG:  Solving for p, Initial residual = 0.707943, Final residual = 8.41401e-05, No Iterations 761
[INFO] SolveP: 3789.68 [ms]
time step continuity errors : sum local = 1.05533e-08, global = -1.16348e-21, cumulative = -3.43557e-21
[INFO] ContinuityError: 14.258 [ms]
[INFO] CorrectBoundary: 0.249 [ms]
[INFO] PISOStep: 4034.71 [ms]
[INFO] TimeStep: 10036.2 [ms]
ExecutionTime = 82.78 s  ClockTime = 85 s

Time = 0.00125

Courant Number mean: 0.0333376 max: 0.472934
[INFO] MatrixAssemblyU: 125.97 [ms]
DILUPBiCGStab:  Solving for Ux, Initial residual = 0.0271319, Final residual = 0.000902581, No Iterations 5
DILUPBiCGStab:  Solving for Uy, Initial residual = 0.0813984, Final residual = 0.00356625, No Iterations 5
DILUPBiCGStab:  Solving for Uz, Initial residual = 0.462325, Final residual = 0.011685, No Iterations 5
[INFO] MomentumPredictor: 943.431 [ms]
[INFO] MatrixAssemblyPI: 138.007 [ms]
[INFO] AdjustPhi: 6.251 [ms]
[INFO] ConstrainPressure: 0.003 [ms]
[INFO] MatrixAssemblyPII: 39.412 [ms]
[OGL LOG][Proc: 0]: global_index_init: 0.096 [ms]
[OGL LOG][Proc: 0]p_local_coeffs: call_update: 0 [ms]
[OGL LOG][Proc: 0]p_non_local_coeffs: call_update: 0 [ms]
[OGL LOG][Proc: 0]p: update_local_matrix_data: 25.543 [ms]
[OGL LOG][Proc: 0]p: update_non_local_matrix_data: 0.607 [ms]
[OGL LOG][Proc: 0]p: regenerate_distributed_matrix: 86.379 [ms]
[OGL LOG][Proc: 0]p_matrix: call_update: 88.026 [ms]
[OGL LOG][Proc: 0]p_rhs: call_update: 0.54 [ms]
[OGL LOG][Preconditioner.H:121] Generate preconditioner BJ MaxBlockSize 1
[OGL LOG][Proc: 0]p: init_precond: 2.997 [ms]
[OGL LOG][StoppingCriterion.H:239] Creating stopping criterion with minIter 456 frequency 17
[OGL LOG][Proc: 0]p: generate_solver: 0.015 [ms]
[OGL LOG][Proc: 0]p: solve: 3614.97 [ms]
[OGL LOG][Proc: 0]p: copy_x_back: 1.859 [ms]
[OGL LOG][lduLduBase.H:330] 
Statistics:
	Time per iteration: 4826 [mu s]
	Time per residual norm calculation: 2486.000000 [mu s]
	Time per iteration and DOF: 0.603250 [ns]
	Retrieve results bandwidth 2.151000 [GByte/s]
[OGL LOG][Proc: 0]p: solve_multi_gpu: 3714.06 [ms]
BJcudaGKOCG:  Solving for p, Initial residual = 0.77618, Final residual = 7.43524e-05, No Iterations 749
[INFO] SolveP: 3745.58 [ms]
time step continuity errors : sum local = 7.69495e-09, global = -1.15521e-21, cumulative = -4.59078e-21
[INFO] ContinuityError: 16.209 [ms]
[INFO] CorrectBoundary: 0.34 [ms]
[INFO] PISOStep: 3991.58 [ms]
[INFO] MatrixAssemblyPI: 135.127 [ms]
[INFO] AdjustPhi: 6.381 [ms]
[INFO] ConstrainPressure: 0.003 [ms]
[INFO] MatrixAssemblyPII: 39.683 [ms]
[OGL LOG][Proc: 0]: global_index_init: 0.032 [ms]
[OGL LOG][Proc: 0]p_local_coeffs: call_update: 0 [ms]
[OGL LOG][Proc: 0]p_non_local_coeffs: call_update: 0 [ms]
[OGL LOG][Proc: 0]p: update_local_matrix_data: 27.417 [ms]
[OGL LOG][Proc: 0]p: update_non_local_matrix_data: 0.54 [ms]
[OGL LOG][Proc: 0]p: regenerate_distributed_matrix: 84.796 [ms]
[OGL LOG][Proc: 0]p_matrix: call_update: 85.652 [ms]
[OGL LOG][Proc: 0]p_rhs: call_update: 4.4 [ms]
[OGL LOG][Preconditioner.H:121] Generate preconditioner BJ MaxBlockSize 1
[OGL LOG][Proc: 0]p: init_precond: 2.519 [ms]
[OGL LOG][StoppingCriterion.H:239] Creating stopping criterion with minIter 449 frequency 17
[OGL LOG][Proc: 0]p: generate_solver: 0.017 [ms]
[OGL LOG][Proc: 0]p: solve: 3614.22 [ms]
[OGL LOG][Proc: 0]p: copy_x_back: 1.808 [ms]
[OGL LOG][lduLduBase.H:330] 
Statistics:
	Time per iteration: 4825 [mu s]
	Time per residual norm calculation: 2345.000000 [mu s]
	Time per iteration and DOF: 0.603125 [ns]
	Retrieve results bandwidth 2.212000 [GByte/s]
[OGL LOG][Proc: 0]p: solve_multi_gpu: 3712.98 [ms]
BJcudaGKOCG:  Solving for p, Initial residual = 0.725229, Final residual = 7.08354e-05, No Iterations 749
[INFO] SolveP: 3746.18 [ms]
time step continuity errors : sum local = 7.11859e-09, global = 6.12049e-23, cumulative = -4.52957e-21
[INFO] ContinuityError: 16.059 [ms]
[INFO] CorrectBoundary: 0.306 [ms]
[INFO] PISOStep: 3990.39 [ms]
[INFO] TimeStep: 9066.85 [ms]
ExecutionTime = 91.82 s  ClockTime = 94 s

Time = 0.0015

Courant Number mean: 0.0366382 max: 0.475556
[INFO] MatrixAssemblyU: 125.214 [ms]
DILUPBiCGStab:  Solving for Ux, Initial residual = 0.02043, Final residual = 0.000644957, No Iterations 5
DILUPBiCGStab:  Solving for Uy, Initial residual = 0.0658486, Final residual = 0.00244953, No Iterations 5
DILUPBiCGStab:  Solving for Uz, Initial residual = 0.335753, Final residual = 0.00853884, No Iterations 5
[INFO] MomentumPredictor: 940.63 [ms]
[INFO] MatrixAssemblyPI: 139.078 [ms]
[INFO] AdjustPhi: 6.235 [ms]
[INFO] ConstrainPressure: 0.003 [ms]
[INFO] MatrixAssemblyPII: 39.208 [ms]
[OGL LOG][Proc: 0]: global_index_init: 0.056 [ms]
[OGL LOG][Proc: 0]p_local_coeffs: call_update: 0 [ms]
[OGL LOG][Proc: 0]p_non_local_coeffs: call_update: 0 [ms]
[OGL LOG][Proc: 0]p: update_local_matrix_data: 26.172 [ms]
[OGL LOG][Proc: 0]p: update_non_local_matrix_data: 0.508 [ms]
[OGL LOG][Proc: 0]p: regenerate_distributed_matrix: 85.827 [ms]
[OGL LOG][Proc: 0]p_matrix: call_update: 87.963 [ms]
[OGL LOG][Proc: 0]p_rhs: call_update: 0.585 [ms]
[OGL LOG][Preconditioner.H:121] Generate preconditioner BJ MaxBlockSize 1
[OGL LOG][Proc: 0]p: init_precond: 3.284 [ms]
[OGL LOG][StoppingCriterion.H:239] Creating stopping criterion with minIter 449 frequency 12
[OGL LOG][Proc: 0]p: generate_solver: 0.016 [ms]
[OGL LOG][Proc: 0]p: solve: 3616.27 [ms]
[OGL LOG][Proc: 0]p: copy_x_back: 1.955 [ms]
[OGL LOG][lduLduBase.H:330] 
Statistics:
	Time per iteration: 4854 [mu s]
	Time per residual norm calculation: 2489.000000 [mu s]
	Time per iteration and DOF: 0.606750 [ns]
	Retrieve results bandwidth 2.046000 [GByte/s]
[OGL LOG][Proc: 0]p: solve_multi_gpu: 3716.18 [ms]
BJcudaGKOCG:  Solving for p, Initial residual = 0.683305, Final residual = 9.20633e-05, No Iterations 745
[INFO] SolveP: 3748.28 [ms]
time step continuity errors : sum local = 9.58062e-09, global = -2.2216e-21, cumulative = -6.75117e-21
[INFO] ContinuityError: 13.605 [ms]
[INFO] CorrectBoundary: 0.367 [ms]
[INFO] PISOStep: 3996.42 [ms]
[INFO] MatrixAssemblyPI: 135.521 [ms]
[INFO] AdjustPhi: 6.331 [ms]
[INFO] ConstrainPressure: 0.002 [ms]
[INFO] MatrixAssemblyPII: 40.157 [ms]
[OGL LOG][Proc: 0]: global_index_init: 0.106 [ms]
[OGL LOG][Proc: 0]p_local_coeffs: call_update: 0 [ms]
[OGL LOG][Proc: 0]p_non_local_coeffs: call_update: 0 [ms]
[OGL LOG][Proc: 0]p: update_local_matrix_data: 26.794 [ms]
[OGL LOG][Proc: 0]p: update_non_local_matrix_data: 0.526 [ms]
[OGL LOG][Proc: 0]p: regenerate_distributed_matrix: 88.686 [ms]
[OGL LOG][Proc: 0]p_matrix: call_update: 89.571 [ms]
[OGL LOG][Proc: 0]p_rhs: call_update: 1.178 [ms]
[OGL LOG][Preconditioner.H:121] Generate preconditioner BJ MaxBlockSize 1
[OGL LOG][Proc: 0]p: init_precond: 2.835 [ms]
[OGL LOG][StoppingCriterion.H:239] Creating stopping criterion with minIter 447 frequency 17
[OGL LOG][Proc: 0]p: generate_solver: 0.014 [ms]
[OGL LOG][Proc: 0]p: solve: 3618.75 [ms]
[OGL LOG][Proc: 0]p: copy_x_back: 1.723 [ms]
[OGL LOG][lduLduBase.H:330] 
Statistics:
	Time per iteration: 4831 [mu s]
	Time per residual norm calculation: 2482.000000 [mu s]
	Time per iteration and DOF: 0.603875 [ns]
	Retrieve results bandwidth 2.321000 [GByte/s]
[OGL LOG][Proc: 0]p: solve_multi_gpu: 3718.56 [ms]
BJcudaGKOCG:  Solving for p, Initial residual = 0.622866, Final residual = 6.90577e-05, No Iterations 749
[INFO] SolveP: 3751.47 [ms]
time step continuity errors : sum local = 6.77507e-09, global = -1.7409e-21, cumulative = -8.49208e-21
[INFO] ContinuityError: 15.16 [ms]
[INFO] CorrectBoundary: 0.757 [ms]
[INFO] PISOStep: 3996.28 [ms]
[INFO] TimeStep: 9074.57 [ms]
ExecutionTime = 100.88 s  ClockTime = 104 s

Time = 0.00175

Courant Number mean: 0.039554 max: 0.477501
[INFO] MatrixAssemblyU: 124.073 [ms]
DILUPBiCGStab:  Solving for Ux, Initial residual = 0.0174376, Final residual = 0.000513068, No Iterations 5
DILUPBiCGStab:  Solving for Uy, Initial residual = 0.0490584, Final residual = 0.00179749, No Iterations 5
DILUPBiCGStab:  Solving for Uz, Initial residual = 0.260536, Final residual = 0.00777548, No Iterations 5
[INFO] MomentumPredictor: 940.394 [ms]
[INFO] MatrixAssemblyPI: 138.406 [ms]
[INFO] AdjustPhi: 6.365 [ms]
[INFO] ConstrainPressure: 0.003 [ms]
[INFO] MatrixAssemblyPII: 39.93 [ms]
[OGL LOG][Proc: 0]: global_index_init: 0.066 [ms]
[OGL LOG][Proc: 0]p_local_coeffs: call_update: 0 [ms]
[OGL LOG][Proc: 0]p_non_local_coeffs: call_update: 0 [ms]
[OGL LOG][Proc: 0]p: update_local_matrix_data: 25.187 [ms]
[OGL LOG][Proc: 0]p: update_non_local_matrix_data: 0.514 [ms]
[OGL LOG][Proc: 0]p: regenerate_distributed_matrix: 84.8 [ms]
[OGL LOG][Proc: 0]p_matrix: call_update: 86.641 [ms]
[OGL LOG][Proc: 0]p_rhs: call_update: 0.827 [ms]
[OGL LOG][Preconditioner.H:121] Generate preconditioner BJ MaxBlockSize 1
[OGL LOG][Proc: 0]p: init_precond: 2.634 [ms]
[OGL LOG][StoppingCriterion.H:239] Creating stopping criterion with minIter 449 frequency 17
[OGL LOG][Proc: 0]p: generate_solver: 0.014 [ms]
[OGL LOG][Proc: 0]p: solve: 7335.34 [ms]
[OGL LOG][Proc: 0]p: copy_x_back: 1.975 [ms]
[OGL LOG][lduLduBase.H:330] 
Statistics:
	Time per iteration: 4845 [mu s]
	Time per residual norm calculation: 2348.000000 [mu s]
	Time per iteration and DOF: 0.605625 [ns]
	Retrieve results bandwidth 2.025000 [GByte/s]
[OGL LOG][Proc: 0]p: solve_multi_gpu: 7433.24 [ms]
BJcudaGKOCG:  Solving for p, Initial residual = 0.679314, Final residual = 8.14905e-05, No Iterations 1514
[INFO] SolveP: 7465 [ms]
time step continuity errors : sum local = 6.34135e-09, global = -2.28378e-21, cumulative = -1.07759e-20
[INFO] ContinuityError: 14.346 [ms]
[INFO] CorrectBoundary: 0.346 [ms]
[INFO] PISOStep: 7712.44 [ms]
[INFO] MatrixAssemblyPI: 135.673 [ms]
[INFO] AdjustPhi: 6.311 [ms]
[INFO] ConstrainPressure: 0.003 [ms]
[INFO] MatrixAssemblyPII: 39.169 [ms]
[OGL LOG][Proc: 0]: global_index_init: 0.02 [ms]
[OGL LOG][Proc: 0]p_local_coeffs: call_update: 0 [ms]
[OGL LOG][Proc: 0]p_non_local_coeffs: call_update: 0 [ms]
[OGL LOG][Proc: 0]p: update_local_matrix_data: 26.037 [ms]
[OGL LOG][Proc: 0]p: update_non_local_matrix_data: 0.593 [ms]
[OGL LOG][Proc: 0]p: regenerate_distributed_matrix: 85.7 [ms]
[OGL LOG][Proc: 0]p_matrix: call_update: 87.573 [ms]
[OGL LOG][Proc: 0]p_rhs: call_update: 1.342 [ms]
[OGL LOG][Preconditioner.H:121] Generate preconditioner BJ MaxBlockSize 1
[OGL LOG][Proc: 0]p: init_precond: 2.797 [ms]
[OGL LOG][StoppingCriterion.H:239] Creating stopping criterion with minIter 908 frequency 17
[OGL LOG][Proc: 0]p: generate_solver: 0.014 [ms]
[OGL LOG][Proc: 0]p: solve: 7264.6 [ms]
[OGL LOG][Proc: 0]p: copy_x_back: 1.83 [ms]
[OGL LOG][lduLduBase.H:330] 
Statistics:
	Time per iteration: 4798 [mu s]
	Time per residual norm calculation: 2483.000000 [mu s]
	Time per iteration and DOF: 0.599750 [ns]
	Retrieve results bandwidth 2.185000 [GByte/s]
[OGL LOG][Proc: 0]p: solve_multi_gpu: 7364.38 [ms]
BJcudaGKOCG:  Solving for p, Initial residual = 0.62004, Final residual = 7.59055e-05, No Iterations 1514
[INFO] SolveP: 7396.09 [ms]
time step continuity errors : sum local = 5.876e-09, global = -1.45597e-21, cumulative = -1.22318e-20
[INFO] ContinuityError: 15.805 [ms]
[INFO] CorrectBoundary: 0.395 [ms]
[INFO] PISOStep: 7639.75 [ms]
[INFO] TimeStep: 16431.8 [ms]
ExecutionTime = 117.27 s  ClockTime = 120 s

Time = 0.002

Courant Number mean: 0.0420791 max: 0.479205
[INFO] MatrixAssemblyU: 126.083 [ms]
DILUPBiCGStab:  Solving for Ux, Initial residual = 0.0143004, Final residual = 0.000394676, No Iterations 5
DILUPBiCGStab:  Solving for Uy, Initial residual = 0.0417822, Final residual = 0.00138497, No Iterations 5
DILUPBiCGStab:  Solving for Uz, Initial residual = 0.203468, Final residual = 0.00601459, No Iterations 5
[INFO] MomentumPredictor: 944.302 [ms]
[INFO] MatrixAssemblyPI: 138.52 [ms]
[INFO] AdjustPhi: 6.463 [ms]
[INFO] ConstrainPressure: 0.002 [ms]
[INFO] MatrixAssemblyPII: 39.362 [ms]
[OGL LOG][Proc: 0]: global_index_init: 0.168 [ms]
[OGL LOG][Proc: 0]p_local_coeffs: call_update: 0 [ms]
[OGL LOG][Proc: 0]p_non_local_coeffs: call_update: 0 [ms]
[OGL LOG][Proc: 0]p: update_local_matrix_data: 26.232 [ms]
[OGL LOG][Proc: 0]p: update_non_local_matrix_data: 0.531 [ms]
[OGL LOG][Proc: 0]p: regenerate_distributed_matrix: 84.446 [ms]
[OGL LOG][Proc: 0]p_matrix: call_update: 91.897 [ms]
[OGL LOG][Proc: 0]p_rhs: call_update: 1.349 [ms]
[OGL LOG][Preconditioner.H:121] Generate preconditioner BJ MaxBlockSize 1
[OGL LOG][Proc: 0]p: init_precond: 5.041 [ms]
[OGL LOG][StoppingCriterion.H:239] Creating stopping criterion with minIter 908 frequency 24
[OGL LOG][Proc: 0]p: generate_solver: 0.033 [ms]
[OGL LOG][Proc: 0]p: solve: 7254.37 [ms]
[OGL LOG][Proc: 0]p: copy_x_back: 1.74 [ms]
[OGL LOG][lduLduBase.H:330] 
Statistics:
	Time per iteration: 4794 [mu s]
	Time per residual norm calculation: 2610.000000 [mu s]
	Time per iteration and DOF: 0.599250 [ns]
	Retrieve results bandwidth 2.298000 [GByte/s]
[OGL LOG][Proc: 0]p: solve_multi_gpu: 7362.1 [ms]
BJcudaGKOCG:  Solving for p, Initial residual = 0.588204, Final residual = 9.25086e-05, No Iterations 1513
[INFO] SolveP: 7394.68 [ms]
time step continuity errors : sum local = 6.849e-09, global = -3.73589e-21, cumulative = -1.59677e-20
[INFO] ContinuityError: 13.855 [ms]
[INFO] CorrectBoundary: 0.359 [ms]
[INFO] PISOStep: 7642.8 [ms]
[INFO] MatrixAssemblyPI: 134.683 [ms]
[INFO] AdjustPhi: 6.234 [ms]
[INFO] ConstrainPressure: 0.003 [ms]
[INFO] MatrixAssemblyPII: 39.613 [ms]
[OGL LOG][Proc: 0]: global_index_init: 0.021 [ms]
[OGL LOG][Proc: 0]p_local_coeffs: call_update: 0 [ms]
[OGL LOG][Proc: 0]p_non_local_coeffs: call_update: 0 [ms]
[OGL LOG][Proc: 0]p: update_local_matrix_data: 26.506 [ms]
[OGL LOG][Proc: 0]p: update_non_local_matrix_data: 0.545 [ms]
[OGL LOG][Proc: 0]p: regenerate_distributed_matrix: 84.356 [ms]
[OGL LOG][Proc: 0]p_matrix: call_update: 86.554 [ms]
[OGL LOG][Proc: 0]p_rhs: call_update: 1.089 [ms]
[OGL LOG][Preconditioner.H:121] Generate preconditioner BJ MaxBlockSize 1
[OGL LOG][Proc: 0]p: init_precond: 2.95 [ms]
[OGL LOG][StoppingCriterion.H:239] Creating stopping criterion with minIter 907 frequency 24
[OGL LOG][Proc: 0]p: generate_solver: 0.014 [ms]
[OGL LOG][Proc: 0]p: solve: 7236.86 [ms]
[OGL LOG][Proc: 0]p: copy_x_back: 1.883 [ms]
[OGL LOG][lduLduBase.H:330] 
Statistics:
	Time per iteration: 4783 [mu s]
	Time per residual norm calculation: 2343.000000 [mu s]
	Time per iteration and DOF: 0.597875 [ns]
	Retrieve results bandwidth 2.124000 [GByte/s]
[OGL LOG][Proc: 0]p: solve_multi_gpu: 7334.79 [ms]
BJcudaGKOCG:  Solving for p, Initial residual = 0.53099, Final residual = 8.54929e-05, No Iterations 1513
[INFO] SolveP: 7367.54 [ms]
time step continuity errors : sum local = 6.31485e-09, global = -1.82698e-21, cumulative = -1.77947e-20
[INFO] ContinuityError: 14.233 [ms]
[INFO] CorrectBoundary: 0.471 [ms]
[INFO] PISOStep: 7611.15 [ms]
[INFO] TimeStep: 16340.3 [ms]
ExecutionTime = 133.56 s  ClockTime = 136 s

Time = 0.00225

Courant Number mean: 0.0443649 max: 0.480355
[INFO] MatrixAssemblyU: 127.268 [ms]
DILUPBiCGStab:  Solving for Ux, Initial residual = 0.0125788, Final residual = 0.000325654, No Iterations 5
DILUPBiCGStab:  Solving for Uy, Initial residual = 0.0336523, Final residual = 0.000983879, No Iterations 5
DILUPBiCGStab:  Solving for Uz, Initial residual = 0.163819, Final residual = 0.00558052, No Iterations 5
[INFO] MomentumPredictor: 932.873 [ms]
[INFO] MatrixAssemblyPI: 138.783 [ms]
[INFO] AdjustPhi: 6.283 [ms]
[INFO] ConstrainPressure: 0.003 [ms]
[INFO] MatrixAssemblyPII: 39.407 [ms]
[OGL LOG][Proc: 0]: global_index_init: 0.103 [ms]
[OGL LOG][Proc: 0]p_local_coeffs: call_update: 0 [ms]
[OGL LOG][Proc: 0]p_non_local_coeffs: call_update: 0 [ms]
[OGL LOG][Proc: 0]p: update_local_matrix_data: 26.587 [ms]
[OGL LOG][Proc: 0]p: update_non_local_matrix_data: 0.582 [ms]
[OGL LOG][Proc: 0]p: regenerate_distributed_matrix: 83.123 [ms]
[OGL LOG][Proc: 0]p_matrix: call_update: 84.45 [ms]
[OGL LOG][Proc: 0]p_rhs: call_update: 1.495 [ms]
[OGL LOG][Preconditioner.H:121] Generate preconditioner BJ MaxBlockSize 1
[OGL LOG][Proc: 0]p: init_precond: 2.91 [ms]
[OGL LOG][StoppingCriterion.H:239] Creating stopping criterion with minIter 907 frequency 17
[OGL LOG][Proc: 0]p: generate_solver: 0.014 [ms]
[OGL LOG][Proc: 0]p: solve: 7182.2 [ms]
[OGL LOG][Proc: 0]p: copy_x_back: 1.769 [ms]
[OGL LOG][lduLduBase.H:330] 
Statistics:
	Time per iteration: 4797 [mu s]
	Time per residual norm calculation: 2492.000000 [mu s]
	Time per iteration and DOF: 0.599625 [ns]
	Retrieve results bandwidth 2.261000 [GByte/s]
[OGL LOG][Proc: 0]p: solve_multi_gpu: 7278.17 [ms]
BJcudaGKOCG:  Solving for p, Initial residual = 0.575348, Final residual = 9.10309e-05, No Iterations 1497
[INFO] SolveP: 7311.07 [ms]
time step continuity errors : sum local = 5.83634e-09, global = -8.86465e-22, cumulative = -1.86812e-20
[INFO] ContinuityError: 15.34 [ms]
[INFO] CorrectBoundary: 0.964 [ms]
[INFO] PISOStep: 7558.85 [ms]
[INFO] MatrixAssemblyPI: 133.633 [ms]
[INFO] AdjustPhi: 6.314 [ms]
[INFO] ConstrainPressure: 0.002 [ms]
[INFO] MatrixAssemblyPII: 39.068 [ms]
[OGL LOG][Proc: 0]: global_index_init: 0.022 [ms]
[OGL LOG][Proc: 0]p_local_coeffs: call_update: 0 [ms]
[OGL LOG][Proc: 0]p_non_local_coeffs: call_update: 0 [ms]
[OGL LOG][Proc: 0]p: update_local_matrix_data: 26.247 [ms]
[OGL LOG][Proc: 0]p: update_non_local_matrix_data: 0.533 [ms]
[OGL LOG][Proc: 0]p: regenerate_distributed_matrix: 86.304 [ms]
[OGL LOG][Proc: 0]p_matrix: call_update: 88.449 [ms]
[OGL LOG][Proc: 0]p_rhs: call_update: 0.721 [ms]
[OGL LOG][Preconditioner.H:121] Generate preconditioner BJ MaxBlockSize 1
[OGL LOG][Proc: 0]p: init_precond: 3.058 [ms]
[OGL LOG][StoppingCriterion.H:239] Creating stopping criterion with minIter 898 frequency 24
[OGL LOG][Proc: 0]p: generate_solver: 0.018 [ms]
[OGL LOG][Proc: 0]p: solve: 7120.78 [ms]
[OGL LOG][Proc: 0]p: copy_x_back: 1.775 [ms]
[OGL LOG][lduLduBase.H:330] 
Statistics:
	Time per iteration: 4782 [mu s]
	Time per residual norm calculation: 2624.000000 [mu s]
	Time per iteration and DOF: 0.597750 [ns]
	Retrieve results bandwidth 2.253000 [GByte/s]
[OGL LOG][Proc: 0]p: solve_multi_gpu: 7220.82 [ms]
BJcudaGKOCG:  Solving for p, Initial residual = 0.514921, Final residual = 9.47576e-05, No Iterations 1489
[INFO] SolveP: 7252.91 [ms]
time step continuity errors : sum local = 6.07294e-09, global = -3.67633e-22, cumulative = -1.90488e-20
[INFO] ContinuityError: 15.863 [ms]
[INFO] CorrectBoundary: 0.601 [ms]
[INFO] PISOStep: 7495.16 [ms]
[INFO] TimeStep: 16129.7 [ms]
ExecutionTime = 149.66 s  ClockTime = 152 s

Time = 0.0025

Courant Number mean: 0.0464191 max: 0.48146
[INFO] MatrixAssemblyU: 126.398 [ms]
DILUPBiCGStab:  Solving for Ux, Initial residual = 0.0108262, Final residual = 0.000262323, No Iterations 5
DILUPBiCGStab:  Solving for Uy, Initial residual = 0.0294859, Final residual = 0.000804382, No Iterations 5
DILUPBiCGStab:  Solving for Uz, Initial residual = 0.132517, Final residual = 0.00459934, No Iterations 5
[INFO] MomentumPredictor: 942.382 [ms]
[INFO] MatrixAssemblyPI: 138.508 [ms]
[INFO] AdjustPhi: 6.377 [ms]
[INFO] ConstrainPressure: 0.002 [ms]
[INFO] MatrixAssemblyPII: 39.259 [ms]
[OGL LOG][Proc: 0]: global_index_init: 0.153 [ms]
[OGL LOG][Proc: 0]p_local_coeffs: call_update: 0 [ms]
[OGL LOG][Proc: 0]p_non_local_coeffs: call_update: 0 [ms]
[OGL LOG][Proc: 0]p: update_local_matrix_data: 25.829 [ms]
[OGL LOG][Proc: 0]p: update_non_local_matrix_data: 0.53 [ms]
[OGL LOG][Proc: 0]p: regenerate_distributed_matrix: 88.04 [ms]
[OGL LOG][Proc: 0]p_matrix: call_update: 89.661 [ms]
[OGL LOG][Proc: 0]p_rhs: call_update: 2.748 [ms]
[OGL LOG][Preconditioner.H:121] Generate preconditioner BJ MaxBlockSize 1
[OGL LOG][Proc: 0]p: init_precond: 2.6 [ms]
[OGL LOG][StoppingCriterion.H:239] Creating stopping criterion with minIter 893 frequency 24
[OGL LOG][Proc: 0]p: generate_solver: 0.014 [ms]
[OGL LOG][Proc: 0]p: solve: 7118.64 [ms]
[OGL LOG][Proc: 0]p: copy_x_back: 1.7 [ms]
[OGL LOG][lduLduBase.H:330] 
Statistics:
	Time per iteration: 4780 [mu s]
	Time per residual norm calculation: 2631.000000 [mu s]
	Time per iteration and DOF: 0.597500 [ns]
	Retrieve results bandwidth 2.352000 [GByte/s]
[OGL LOG][Proc: 0]p: solve_multi_gpu: 7220.77 [ms]
BJcudaGKOCG:  Solving for p, Initial residual = 0.498612, Final residual = 9.44241e-05, No Iterations 1489
[INFO] SolveP: 7253.01 [ms]
time step continuity errors : sum local = 5.87569e-09, global = -8.71338e-22, cumulative = -1.99201e-20
[INFO] ContinuityError: 14.422 [ms]
[INFO] CorrectBoundary: 0.351 [ms]
[INFO] PISOStep: 7501.35 [ms]
[INFO] MatrixAssemblyPI: 135.972 [ms]
[INFO] AdjustPhi: 6.237 [ms]
[INFO] ConstrainPressure: 0.002 [ms]
[INFO] MatrixAssemblyPII: 39.85 [ms]
[OGL LOG][Proc: 0]: global_index_init: 0.045 [ms]
[OGL LOG][Proc: 0]p_local_coeffs: call_update: 0 [ms]
[OGL LOG][Proc: 0]p_non_local_coeffs: call_update: 0 [ms]
[OGL LOG][Proc: 0]p: update_local_matrix_data: 26.208 [ms]
[OGL LOG][Proc: 0]p: update_non_local_matrix_data: 0.546 [ms]
[OGL LOG][Proc: 0]p: regenerate_distributed_matrix: 85.412 [ms]
[OGL LOG][Proc: 0]p_matrix: call_update: 87.234 [ms]
[OGL LOG][Proc: 0]p_rhs: call_update: 1.17 [ms]
[OGL LOG][Preconditioner.H:121] Generate preconditioner BJ MaxBlockSize 1
[OGL LOG][Proc: 0]p: init_precond: 3.209 [ms]
[OGL LOG][StoppingCriterion.H:239] Creating stopping criterion with minIter 893 frequency 24
[OGL LOG][Proc: 0]p: generate_solver: 0.014 [ms]
[OGL LOG][Proc: 0]p: solve: 7123.04 [ms]
[OGL LOG][Proc: 0]p: copy_x_back: 1.762 [ms]
[OGL LOG][lduLduBase.H:330] 
Statistics:
	Time per iteration: 4783 [mu s]
	Time per residual norm calculation: 2490.000000 [mu s]
	Time per iteration and DOF: 0.597875 [ns]
	Retrieve results bandwidth 2.270000 [GByte/s]
[OGL LOG][Proc: 0]p: solve_multi_gpu: 7222.25 [ms]
BJcudaGKOCG:  Solving for p, Initial residual = 0.4462, Final residual = 9.22118e-05, No Iterations 1489
[INFO] SolveP: 7254.69 [ms]
time step continuity errors : sum local = 5.71354e-09, global = -5.77064e-22, cumulative = -2.04972e-20
[INFO] ContinuityError: 13.156 [ms]
[INFO] CorrectBoundary: 0.312 [ms]
[INFO] PISOStep: 7499.5 [ms]
[INFO] TimeStep: 16085.1 [ms]
ExecutionTime = 165.72 s  ClockTime = 169 s

Time = 0.00275

Courant Number mean: 0.0483074 max: 0.482233
[INFO] MatrixAssemblyU: 126.687 [ms]
DILUPBiCGStab:  Solving for Ux, Initial residual = 0.00969599, Final residual = 0.000220366, No Iterations 5
DILUPBiCGStab:  Solving for Uy, Initial residual = 0.0249591, Final residual = 0.000584482, No Iterations 5
DILUPBiCGStab:  Solving for Uz, Initial residual = 0.110545, Final residual = 0.00429381, No Iterations 5
[INFO] MomentumPredictor: 944.493 [ms]
[INFO] MatrixAssemblyPI: 138.701 [ms]
[INFO] AdjustPhi: 6.304 [ms]
[INFO] ConstrainPressure: 0.003 [ms]
[INFO] MatrixAssemblyPII: 39.434 [ms]
[OGL LOG][Proc: 0]: global_index_init: 0.192 [ms]
[OGL LOG][Proc: 0]p_local_coeffs: call_update: 0 [ms]
[OGL LOG][Proc: 0]p_non_local_coeffs: call_update: 0 [ms]
[OGL LOG][Proc: 0]p: update_local_matrix_data: 26.472 [ms]
[OGL LOG][Proc: 0]p: update_non_local_matrix_data: 0.59 [ms]
[OGL LOG][Proc: 0]p: regenerate_distributed_matrix: 83.095 [ms]
[OGL LOG][Proc: 0]p_matrix: call_update: 84.319 [ms]
[OGL LOG][Proc: 0]p_rhs: call_update: 3.972 [ms]
[OGL LOG][Preconditioner.H:121] Generate preconditioner BJ MaxBlockSize 1
[OGL LOG][Proc: 0]p: init_precond: 2.544 [ms]
[OGL LOG][StoppingCriterion.H:239] Creating stopping criterion with minIter 893 frequency 24
[OGL LOG][Proc: 0]p: generate_solver: 0.014 [ms]
[OGL LOG][Proc: 0]p: solve: 7123.92 [ms]
[OGL LOG][Proc: 0]p: copy_x_back: 1.794 [ms]
[OGL LOG][lduLduBase.H:330] 
Statistics:
	Time per iteration: 4784 [mu s]
	Time per residual norm calculation: 2480.000000 [mu s]
	Time per iteration and DOF: 0.598000 [ns]
	Retrieve results bandwidth 2.229000 [GByte/s]
[OGL LOG][Proc: 0]p: solve_multi_gpu: 7222.6 [ms]
BJcudaGKOCG:  Solving for p, Initial residual = 0.474333, Final residual = 7.30547e-05, No Iterations 1489
[INFO] SolveP: 7255.38 [ms]
time step continuity errors : sum local = 4.10665e-09, global = -2.00137e-21, cumulative = -2.24986e-20
[INFO] ContinuityError: 15.269 [ms]
[INFO] CorrectBoundary: 1.496 [ms]
[INFO] PISOStep: 7503.66 [ms]
[INFO] MatrixAssemblyPI: 133.994 [ms]
[INFO] AdjustPhi: 6.338 [ms]
[INFO] ConstrainPressure: 0.003 [ms]
[INFO] MatrixAssemblyPII: 39.284 [ms]
[OGL LOG][Proc: 0]: global_index_init: 0.068 [ms]
[OGL LOG][Proc: 0]p_local_coeffs: call_update: 0 [ms]
[OGL LOG][Proc: 0]p_non_local_coeffs: call_update: 0 [ms]
[OGL LOG][Proc: 0]p: update_local_matrix_data: 26.176 [ms]
[OGL LOG][Proc: 0]p: update_non_local_matrix_data: 0.514 [ms]
[OGL LOG][Proc: 0]p: regenerate_distributed_matrix: 86.117 [ms]
[OGL LOG][Proc: 0]p_matrix: call_update: 88.603 [ms]
[OGL LOG][Proc: 0]p_rhs: call_update: 0.612 [ms]
[OGL LOG][Preconditioner.H:121] Generate preconditioner BJ MaxBlockSize 1
[OGL LOG][Proc: 0]p: init_precond: 3.232 [ms]
[OGL LOG][StoppingCriterion.H:239] Creating stopping criterion with minIter 893 frequency 24
[OGL LOG][Proc: 0]p: generate_solver: 0.015 [ms]
[OGL LOG][Proc: 0]p: solve: 7126.22 [ms]
[OGL LOG][Proc: 0]p: copy_x_back: 1.783 [ms]
[OGL LOG][lduLduBase.H:330] 
Statistics:
	Time per iteration: 4785 [mu s]
	Time per residual norm calculation: 2488.000000 [mu s]
	Time per iteration and DOF: 0.598125 [ns]
	Retrieve results bandwidth 2.243000 [GByte/s]
[OGL LOG][Proc: 0]p: solve_multi_gpu: 7226.52 [ms]
BJcudaGKOCG:  Solving for p, Initial residual = 0.420366, Final residual = 6.87008e-05, No Iterations 1489
[INFO] SolveP: 7258.4 [ms]
time step continuity errors : sum local = 3.86588e-09, global = 4.34386e-22, cumulative = -2.20642e-20
[INFO] ContinuityError: 14.689 [ms]
[INFO] CorrectBoundary: 0.335 [ms]
[INFO] PISOStep: 7499.57 [ms]
[INFO] TimeStep: 16089.8 [ms]
ExecutionTime = 181.78 s  ClockTime = 185 s

Time = 0.003

Courant Number mean: 0.0500404 max: 0.483022
[INFO] MatrixAssemblyU: 126.375 [ms]
DILUPBiCGStab:  Solving for Ux, Initial residual = 0.00860656, Final residual = 0.000183878, No Iterations 5
DILUPBiCGStab:  Solving for Uy, Initial residual = 0.0222981, Final residual = 0.000482614, No Iterations 5
DILUPBiCGStab:  Solving for Uz, Initial residual = 0.0926601, Final residual = 0.00366722, No Iterations 5
[INFO] MomentumPredictor: 935.246 [ms]
[INFO] MatrixAssemblyPI: 138.256 [ms]
[INFO] AdjustPhi: 6.26 [ms]
[INFO] ConstrainPressure: 0.002 [ms]
[INFO] MatrixAssemblyPII: 39.14 [ms]
[OGL LOG][Proc: 0]: global_index_init: 0.074 [ms]
[OGL LOG][Proc: 0]p_local_coeffs: call_update: 0 [ms]
[OGL LOG][Proc: 0]p_non_local_coeffs: call_update: 0 [ms]
[OGL LOG][Proc: 0]p: update_local_matrix_data: 25.467 [ms]
[OGL LOG][Proc: 0]p: update_non_local_matrix_data: 0.57 [ms]
[OGL LOG][Proc: 0]p: regenerate_distributed_matrix: 84.942 [ms]
[OGL LOG][Proc: 0]p_matrix: call_update: 86.665 [ms]
[OGL LOG][Proc: 0]p_rhs: call_update: 0.794 [ms]
[OGL LOG][Preconditioner.H:121] Generate preconditioner BJ MaxBlockSize 1
[OGL LOG][Proc: 0]p: init_precond: 3.276 [ms]
[OGL LOG][StoppingCriterion.H:239] Creating stopping criterion with minIter 893 frequency 24
[OGL LOG][Proc: 0]p: generate_solver: 0.019 [ms]
[OGL LOG][Proc: 0]p: solve: 7121.49 [ms]
[OGL LOG][Proc: 0]p: copy_x_back: 1.759 [ms]
[OGL LOG][lduLduBase.H:330] 
Statistics:
	Time per iteration: 4782 [mu s]
	Time per residual norm calculation: 2630.000000 [mu s]
	Time per iteration and DOF: 0.597750 [ns]
	Retrieve results bandwidth 2.274000 [GByte/s]
[OGL LOG][Proc: 0]p: solve_multi_gpu: 7219.47 [ms]
BJcudaGKOCG:  Solving for p, Initial residual = 0.417062, Final residual = 7.38157e-05, No Iterations 1489
[INFO] SolveP: 7251.01 [ms]
time step continuity errors : sum local = 4.03158e-09, global = -4.14233e-21, cumulative = -2.62065e-20
[INFO] ContinuityError: 14.873 [ms]
[INFO] CorrectBoundary: 0.301 [ms]
[INFO] PISOStep: 7496.97 [ms]
[INFO] MatrixAssemblyPI: 134.449 [ms]
[INFO] AdjustPhi: 6.285 [ms]
[INFO] ConstrainPressure: 0.003 [ms]
[INFO] MatrixAssemblyPII: 39.598 [ms]
[OGL LOG][Proc: 0]: global_index_init: 0.103 [ms]
[OGL LOG][Proc: 0]p_local_coeffs: call_update: 0 [ms]
[OGL LOG][Proc: 0]p_non_local_coeffs: call_update: 0 [ms]
[OGL LOG][Proc: 0]p: update_local_matrix_data: 26.354 [ms]
[OGL LOG][Proc: 0]p: update_non_local_matrix_data: 0.549 [ms]
[OGL LOG][Proc: 0]p: regenerate_distributed_matrix: 83.966 [ms]
[OGL LOG][Proc: 0]p_matrix: call_update: 85.213 [ms]
[OGL LOG][Proc: 0]p_rhs: call_update: 3.175 [ms]
[OGL LOG][Preconditioner.H:121] Generate preconditioner BJ MaxBlockSize 1
[OGL LOG][Proc: 0]p: init_precond: 2.688 [ms]
[OGL LOG][StoppingCriterion.H:239] Creating stopping criterion with minIter 893 frequency 24
[OGL LOG][Proc: 0]p: generate_solver: 0.014 [ms]
[OGL LOG][Proc: 0]p: solve: 7125.51 [ms]
[OGL LOG][Proc: 0]p: copy_x_back: 1.975 [ms]
[OGL LOG][lduLduBase.H:330] 
Statistics:
	Time per iteration: 4785 [mu s]
	Time per residual norm calculation: 2338.000000 [mu s]
	Time per iteration and DOF: 0.598125 [ns]
	Retrieve results bandwidth 2.025000 [GByte/s]
[OGL LOG][Proc: 0]p: solve_multi_gpu: 7223.22 [ms]
BJcudaGKOCG:  Solving for p, Initial residual = 0.37067, Final residual = 6.96159e-05, No Iterations 1489
[INFO] SolveP: 7257.01 [ms]
time step continuity errors : sum local = 3.78535e-09, global = -4.75142e-21, cumulative = -3.09579e-20
[INFO] ContinuityError: 13.729 [ms]
[INFO] CorrectBoundary: 0.318 [ms]
[INFO] PISOStep: 7500.12 [ms]
[INFO] TimeStep: 16073.8 [ms]
ExecutionTime = 197.82 s  ClockTime = 201 s

Time = 0.00325

Courant Number mean: 0.0516504 max: 0.483588
[INFO] MatrixAssemblyU: 127.302 [ms]
DILUPBiCGStab:  Solving for Ux, Initial residual = 0.00781038, Final residual = 0.000157018, No Iterations 5
DILUPBiCGStab:  Solving for Uy, Initial residual = 0.0195183, Final residual = 0.000373224, No Iterations 5
DILUPBiCGStab:  Solving for Uz, Initial residual = 0.078897, Final residual = 0.00339041, No Iterations 5
[INFO] MomentumPredictor: 940.657 [ms]
[INFO] MatrixAssemblyPI: 138.049 [ms]
[INFO] AdjustPhi: 6.408 [ms]
[INFO] ConstrainPressure: 0.003 [ms]
[INFO] MatrixAssemblyPII: 39.285 [ms]
[OGL LOG][Proc: 0]: global_index_init: 0.056 [ms]
[OGL LOG][Proc: 0]p_local_coeffs: call_update: 0 [ms]
[OGL LOG][Proc: 0]p_non_local_coeffs: call_update: 0 [ms]
[OGL LOG][Proc: 0]p: update_local_matrix_data: 25.993 [ms]
[OGL LOG][Proc: 0]p: update_non_local_matrix_data: 0.559 [ms]
[OGL LOG][Proc: 0]p: regenerate_distributed_matrix: 85.263 [ms]
[OGL LOG][Proc: 0]p_matrix: call_update: 87.17 [ms]
[OGL LOG][Proc: 0]p_rhs: call_update: 0.568 [ms]
[OGL LOG][Preconditioner.H:121] Generate preconditioner BJ MaxBlockSize 1
[OGL LOG][Proc: 0]p: init_precond: 3.271 [ms]
[OGL LOG][StoppingCriterion.H:239] Creating stopping criterion with minIter 893 frequency 17
[OGL LOG][Proc: 0]p: generate_solver: 0.015 [ms]
[OGL LOG][Proc: 0]p: solve: 7104.11 [ms]
[OGL LOG][Proc: 0]p: copy_x_back: 1.681 [ms]
[OGL LOG][lduLduBase.H:330] 
Statistics:
	Time per iteration: 4800 [mu s]
	Time per residual norm calculation: 2483.000000 [mu s]
	Time per iteration and DOF: 0.600000 [ns]
	Retrieve results bandwidth 2.379000 [GByte/s]
[OGL LOG][Proc: 0]p: solve_multi_gpu: 7202.33 [ms]
BJcudaGKOCG:  Solving for p, Initial residual = 0.386566, Final residual = 7.40922e-05, No Iterations 1480
[INFO] SolveP: 7234.42 [ms]
time step continuity errors : sum local = 3.78216e-09, global = -4.02472e-21, cumulative = -3.49827e-20
[INFO] ContinuityError: 16.828 [ms]
[INFO] CorrectBoundary: 1.089 [ms]
[INFO] PISOStep: 7481.32 [ms]
[INFO] MatrixAssemblyPI: 133.79 [ms]
[INFO] AdjustPhi: 6.741 [ms]
[INFO] ConstrainPressure: 0.003 [ms]
[INFO] MatrixAssemblyPII: 39.784 [ms]
[OGL LOG][Proc: 0]: global_index_init: 0.071 [ms]
[OGL LOG][Proc: 0]p_local_coeffs: call_update: 0 [ms]
[OGL LOG][Proc: 0]p_non_local_coeffs: call_update: 0 [ms]
[OGL LOG][Proc: 0]p: update_local_matrix_data: 26.285 [ms]
[OGL LOG][Proc: 0]p: update_non_local_matrix_data: 0.543 [ms]
[OGL LOG][Proc: 0]p: regenerate_distributed_matrix: 86.226 [ms]
[OGL LOG][Proc: 0]p_matrix: call_update: 88.948 [ms]
[OGL LOG][Proc: 0]p_rhs: call_update: 0.59 [ms]
[OGL LOG][Preconditioner.H:121] Generate preconditioner BJ MaxBlockSize 1
[OGL LOG][Proc: 0]p: init_precond: 2.957 [ms]
[OGL LOG][StoppingCriterion.H:239] Creating stopping criterion with minIter 888 frequency 24
[OGL LOG][Proc: 0]p: generate_solver: 0.016 [ms]
[OGL LOG][Proc: 0]p: solve: 7005.31 [ms]
[OGL LOG][Proc: 0]p: copy_x_back: 1.831 [ms]
[OGL LOG][lduLduBase.H:330] 
Statistics:
	Time per iteration: 4781 [mu s]
	Time per residual norm calculation: 2645.000000 [mu s]
	Time per iteration and DOF: 0.597625 [ns]
	Retrieve results bandwidth 2.184000 [GByte/s]
[OGL LOG][Proc: 0]p: solve_multi_gpu: 7105.01 [ms]
BJcudaGKOCG:  Solving for p, Initial residual = 0.340577, Final residual = 9.69819e-05, No Iterations 1465
[INFO] SolveP: 7137.64 [ms]
time step continuity errors : sum local = 4.95685e-09, global = -3.07072e-21, cumulative = -3.80534e-20
[INFO] ContinuityError: 18.261 [ms]
[INFO] CorrectBoundary: 0.241 [ms]
[INFO] PISOStep: 7382.5 [ms]
[INFO] TimeStep: 15946.6 [ms]
ExecutionTime = 213.74 s  ClockTime = 217 s

Time = 0.0035

Courant Number mean: 0.0531454 max: 0.484181
[INFO] MatrixAssemblyU: 127.218 [ms]
DILUPBiCGStab:  Solving for Ux, Initial residual = 0.00707717, Final residual = 0.000134804, No Iterations 5
DILUPBiCGStab:  Solving for Uy, Initial residual = 0.0177001, Final residual = 0.000308088, No Iterations 5
DILUPBiCGStab:  Solving for Uz, Initial residual = 0.0681348, Final residual = 0.00295843, No Iterations 5
[INFO] MomentumPredictor: 934.942 [ms]
[INFO] MatrixAssemblyPI: 138.255 [ms]
[INFO] AdjustPhi: 6.171 [ms]
[INFO] ConstrainPressure: 0.003 [ms]
[INFO] MatrixAssemblyPII: 39.215 [ms]
[OGL LOG][Proc: 0]: global_index_init: 0.085 [ms]
[OGL LOG][Proc: 0]p_local_coeffs: call_update: 0 [ms]
[OGL LOG][Proc: 0]p_non_local_coeffs: call_update: 0 [ms]
[OGL LOG][Proc: 0]p: update_local_matrix_data: 25.732 [ms]
[OGL LOG][Proc: 0]p: update_non_local_matrix_data: 0.583 [ms]
[OGL LOG][Proc: 0]p: regenerate_distributed_matrix: 84.258 [ms]
[OGL LOG][Proc: 0]p_matrix: call_update: 86.336 [ms]
[OGL LOG][Proc: 0]p_rhs: call_update: 0.845 [ms]
[OGL LOG][Preconditioner.H:121] Generate preconditioner BJ MaxBlockSize 1
[OGL LOG][Proc: 0]p: init_precond: 3.187 [ms]
[OGL LOG][StoppingCriterion.H:239] Creating stopping criterion with minIter 879 frequency 24
[OGL LOG][Proc: 0]p: generate_solver: 0.015 [ms]
[OGL LOG][Proc: 0]p: solve: 7125.15 [ms]
[OGL LOG][Proc: 0]p: copy_x_back: 1.676 [ms]
[OGL LOG][lduLduBase.H:330] 
Statistics:
	Time per iteration: 4785 [mu s]
	Time per residual norm calculation: 2487.000000 [mu s]
	Time per iteration and DOF: 0.598125 [ns]
	Retrieve results bandwidth 2.386000 [GByte/s]
[OGL LOG][Proc: 0]p: solve_multi_gpu: 7222.12 [ms]
BJcudaGKOCG:  Solving for p, Initial residual = 0.344491, Final residual = 6.1777e-05, No Iterations 1489
[INFO] SolveP: 7254.72 [ms]
time step continuity errors : sum local = 3.05082e-09, global = -2.74985e-21, cumulative = -4.08032e-20
[INFO] ContinuityError: 15.3 [ms]
[INFO] CorrectBoundary: 0.315 [ms]
[INFO] PISOStep: 7502.24 [ms]
[INFO] MatrixAssemblyPI: 133.961 [ms]
[INFO] AdjustPhi: 6.318 [ms]
[INFO] ConstrainPressure: 0.003 [ms]
[INFO] MatrixAssemblyPII: 39.532 [ms]
[OGL LOG][Proc: 0]: global_index_init: 0.082 [ms]
[OGL LOG][Proc: 0]p_local_coeffs: call_update: 0 [ms]
[OGL LOG][Proc: 0]p_non_local_coeffs: call_update: 0 [ms]
[OGL LOG][Proc: 0]p: update_local_matrix_data: 26.517 [ms]
[OGL LOG][Proc: 0]p: update_non_local_matrix_data: 0.562 [ms]
[OGL LOG][Proc: 0]p: regenerate_distributed_matrix: 86.045 [ms]
[OGL LOG][Proc: 0]p_matrix: call_update: 88 [ms]
[OGL LOG][Proc: 0]p_rhs: call_update: 0.743 [ms]
[OGL LOG][Preconditioner.H:121] Generate preconditioner BJ MaxBlockSize 1
[OGL LOG][Proc: 0]p: init_precond: 2.596 [ms]
[OGL LOG][StoppingCriterion.H:239] Creating stopping criterion with minIter 893 frequency 24
[OGL LOG][Proc: 0]p: generate_solver: 0.02 [ms]
[OGL LOG][Proc: 0]p: solve: 7121.87 [ms]
[OGL LOG][Proc: 0]p: copy_x_back: 1.644 [ms]
[OGL LOG][lduLduBase.H:330] 
Statistics:
	Time per iteration: 4782 [mu s]
	Time per residual norm calculation: 2474.000000 [mu s]
	Time per iteration and DOF: 0.597750 [ns]
	Retrieve results bandwidth 2.433000 [GByte/s]
[OGL LOG][Proc: 0]p: solve_multi_gpu: 7219.02 [ms]
BJcudaGKOCG:  Solving for p, Initial residual = 0.305069, Final residual = 5.7852e-05, No Iterations 1489
[INFO] SolveP: 7252.49 [ms]
time step continuity errors : sum local = 2.8457e-09, global = -1.10135e-21, cumulative = -4.19046e-20
[INFO] ContinuityError: 15.207 [ms]
[INFO] CorrectBoundary: 0.235 [ms]
[INFO] PISOStep: 7494.86 [ms]
[INFO] TimeStep: 16092.3 [ms]
ExecutionTime = 229.8 s  ClockTime = 233 s

Time = 0.00375

Courant Number mean: 0.0545471 max: 0.484622
[INFO] MatrixAssemblyU: 125.218 [ms]
DILUPBiCGStab:  Solving for Ux, Initial residual = 0.00648918, Final residual = 0.000116777, No Iterations 5
DILUPBiCGStab:  Solving for Uy, Initial residual = 0.0158569, Final residual = 0.000257264, No Iterations 5
DILUPBiCGStab:  Solving for Uz, Initial residual = 0.0588403, Final residual = 0.00269259, No Iterations 5
[INFO] MomentumPredictor: 938.557 [ms]
[INFO] MatrixAssemblyPI: 138.692 [ms]
[INFO] AdjustPhi: 6.294 [ms]
[INFO] ConstrainPressure: 0.003 [ms]
[INFO] MatrixAssemblyPII: 39.372 [ms]
[OGL LOG][Proc: 0]: global_index_init: 0.17 [ms]
[OGL LOG][Proc: 0]p_local_coeffs: call_update: 0 [ms]
[OGL LOG][Proc: 0]p_non_local_coeffs: call_update: 0 [ms]
[OGL LOG][Proc: 0]p: update_local_matrix_data: 25.995 [ms]
[OGL LOG][Proc: 0]p: update_non_local_matrix_data: 0.561 [ms]
[OGL LOG][Proc: 0]p: regenerate_distributed_matrix: 84.81 [ms]
[OGL LOG][Proc: 0]p_matrix: call_update: 86.701 [ms]
[OGL LOG][Proc: 0]p_rhs: call_update: 1.102 [ms]
[OGL LOG][Preconditioner.H:121] Generate preconditioner BJ MaxBlockSize 1
[OGL LOG][Proc: 0]p: init_precond: 2.59 [ms]
[OGL LOG][StoppingCriterion.H:239] Creating stopping criterion with minIter 893 frequency 24
[OGL LOG][Proc: 0]p: generate_solver: 0.015 [ms]
[OGL LOG][Proc: 0]p: solve: 7123.69 [ms]
[OGL LOG][Proc: 0]p: copy_x_back: 1.441 [ms]
[OGL LOG][lduLduBase.H:330] 
Statistics:
	Time per iteration: 4784 [mu s]
	Time per residual norm calculation: 2643.000000 [mu s]
	Time per iteration and DOF: 0.598000 [ns]
	Retrieve results bandwidth 2.775000 [GByte/s]
[OGL LOG][Proc: 0]p: solve_multi_gpu: 7220.78 [ms]
BJcudaGKOCG:  Solving for p, Initial residual = 0.312113, Final residual = 4.87453e-05, No Iterations 1489
[INFO] SolveP: 7252.95 [ms]
time step continuity errors : sum local = 2.30952e-09, global = -3.25548e-21, cumulative = -4.51601e-20
[INFO] ContinuityError: 19.75 [ms]
[INFO] CorrectBoundary: 0.45 [ms]
[INFO] PISOStep: 7505.08 [ms]
[INFO] MatrixAssemblyPI: 135.74 [ms]
[INFO] AdjustPhi: 6.2 [ms]
[INFO] ConstrainPressure: 0.002 [ms]
[INFO] MatrixAssemblyPII: 39.683 [ms]
[OGL LOG][Proc: 0]: global_index_init: 0.022 [ms]
[OGL LOG][Proc: 0]p_local_coeffs: call_update: 0 [ms]
[OGL LOG][Proc: 0]p_non_local_coeffs: call_update: 0 [ms]
[OGL LOG][Proc: 0]p: update_local_matrix_data: 26.007 [ms]
[OGL LOG][Proc: 0]p: update_non_local_matrix_data: 0.543 [ms]
[OGL LOG][Proc: 0]p: regenerate_distributed_matrix: 87.268 [ms]
[OGL LOG][Proc: 0]p_matrix: call_update: 89.295 [ms]
[OGL LOG][Proc: 0]p_rhs: call_update: 3.217 [ms]
[OGL LOG][Preconditioner.H:121] Generate preconditioner BJ MaxBlockSize 1
[OGL LOG][Proc: 0]p: init_precond: 3.259 [ms]
[OGL LOG][StoppingCriterion.H:239] Creating stopping criterion with minIter 893 frequency 24
[OGL LOG][Proc: 0]p: generate_solver: 0.017 [ms]
[OGL LOG][Proc: 0]p: solve: 7006.17 [ms]
[OGL LOG][Proc: 0]p: copy_x_back: 1.747 [ms]
[OGL LOG][lduLduBase.H:330] 
Statistics:
	Time per iteration: 4782 [mu s]
	Time per residual norm calculation: 2628.000000 [mu s]
	Time per iteration and DOF: 0.597750 [ns]
	Retrieve results bandwidth 2.289000 [GByte/s]
[OGL LOG][Proc: 0]p: solve_multi_gpu: 7111.3 [ms]
BJcudaGKOCG:  Solving for p, Initial residual = 0.274263, Final residual = 9.704e-05, No Iterations 1465
[INFO] SolveP: 7143.1 [ms]
time step continuity errors : sum local = 4.6027e-09, global = -2.08303e-21, cumulative = -4.72431e-20
[INFO] ContinuityError: 16.693 [ms]
[INFO] CorrectBoundary: 0.679 [ms]
[INFO] PISOStep: 7387.45 [ms]
[INFO] TimeStep: 15971.9 [ms]
ExecutionTime = 245.73 s  ClockTime = 249 s

Time = 0.004

Courant Number mean: 0.0558602 max: 0.485085
[INFO] MatrixAssemblyU: 126.194 [ms]
DILUPBiCGStab:  Solving for Ux, Initial residual = 0.00596599, Final residual = 0.000102544, No Iterations 5
DILUPBiCGStab:  Solving for Uy, Initial residual = 0.0145534, Final residual = 0.000216082, No Iterations 5
DILUPBiCGStab:  Solving for Uz, Initial residual = 0.0519233, Final residual = 0.00236527, No Iterations 5
[INFO] MomentumPredictor: 938.531 [ms]
[INFO] MatrixAssemblyPI: 138.527 [ms]
[INFO] AdjustPhi: 6.216 [ms]
[INFO] ConstrainPressure: 0.003 [ms]
[INFO] MatrixAssemblyPII: 39.348 [ms]
[OGL LOG][Proc: 0]: global_index_init: 0.173 [ms]
[OGL LOG][Proc: 0]p_local_coeffs: call_update: 0 [ms]
[OGL LOG][Proc: 0]p_non_local_coeffs: call_update: 0 [ms]
[OGL LOG][Proc: 0]p: update_local_matrix_data: 26.002 [ms]
[OGL LOG][Proc: 0]p: update_non_local_matrix_data: 0.563 [ms]
[OGL LOG][Proc: 0]p: regenerate_distributed_matrix: 85.318 [ms]
[OGL LOG][Proc: 0]p_matrix: call_update: 86.22 [ms]
[OGL LOG][Proc: 0]p_rhs: call_update: 3.61 [ms]
[OGL LOG][Preconditioner.H:121] Generate preconditioner BJ MaxBlockSize 1
[OGL LOG][Proc: 0]p: init_precond: 3.455 [ms]
[OGL LOG][StoppingCriterion.H:239] Creating stopping criterion with minIter 879 frequency 24
[OGL LOG][Proc: 0]p: generate_solver: 0.017 [ms]
[OGL LOG][Proc: 0]p: solve: 6785.11 [ms]
[OGL LOG][Proc: 0]p: copy_x_back: 1.861 [ms]
[OGL LOG][lduLduBase.H:330] 
Statistics:
	Time per iteration: 4788 [mu s]
	Time per residual norm calculation: 2490.000000 [mu s]
	Time per iteration and DOF: 0.598500 [ns]
	Retrieve results bandwidth 2.149000 [GByte/s]
[OGL LOG][Proc: 0]p: solve_multi_gpu: 6887.65 [ms]
BJcudaGKOCG:  Solving for p, Initial residual = 0.281403, Final residual = 9.60881e-05, No Iterations 1417
[INFO] SolveP: 6919.78 [ms]
time step continuity errors : sum local = 4.38738e-09, global = -3.37191e-21, cumulative = -5.0615e-20
[INFO] ContinuityError: 14.025 [ms]
[INFO] CorrectBoundary: 0.367 [ms]
[INFO] PISOStep: 7167.31 [ms]
[INFO] MatrixAssemblyPI: 134.95 [ms]
[INFO] AdjustPhi: 6.287 [ms]
[INFO] ConstrainPressure: 0.002 [ms]
[INFO] MatrixAssemblyPII: 40.425 [ms]
[OGL LOG][Proc: 0]: global_index_init: 0.122 [ms]
[OGL LOG][Proc: 0]p_local_coeffs: call_update: 0 [ms]
[OGL LOG][Proc: 0]p_non_local_coeffs: call_update: 0 [ms]
[OGL LOG][Proc: 0]p: update_local_matrix_data: 27.09 [ms]
[OGL LOG][Proc: 0]p: update_non_local_matrix_data: 0.577 [ms]
[OGL LOG][Proc: 0]p: regenerate_distributed_matrix: 85.863 [ms]
[OGL LOG][Proc: 0]p_matrix: call_update: 88.522 [ms]
[OGL LOG][Proc: 0]p_rhs: call_update: 0.586 [ms]
[OGL LOG][Preconditioner.H:121] Generate preconditioner BJ MaxBlockSize 1
[OGL LOG][Proc: 0]p: init_precond: 2.597 [ms]
[OGL LOG][StoppingCriterion.H:239] Creating stopping criterion with minIter 850 frequency 23
[OGL LOG][Proc: 0]p: generate_solver: 0.013 [ms]
[OGL LOG][Proc: 0]p: solve: 7052.98 [ms]
[OGL LOG][Proc: 0]p: copy_x_back: 1.803 [ms]
[OGL LOG][lduLduBase.H:330] 
Statistics:
	Time per iteration: 4788 [mu s]
	Time per residual norm calculation: 2493.000000 [mu s]
	Time per iteration and DOF: 0.598500 [ns]
	Retrieve results bandwidth 2.218000 [GByte/s]
[OGL LOG][Proc: 0]p: solve_multi_gpu: 7152.1 [ms]
BJcudaGKOCG:  Solving for p, Initial residual = 0.248411, Final residual = 7.84752e-05, No Iterations 1473
[INFO] SolveP: 7185.31 [ms]
time step continuity errors : sum local = 3.5717e-09, global = -5.97947e-21, cumulative = -5.65945e-20
[INFO] ContinuityError: 16.394 [ms]
[INFO] CorrectBoundary: 1.187 [ms]
[INFO] PISOStep: 7430.01 [ms]
[INFO] TimeStep: 15677.8 [ms]
ExecutionTime = 261.39 s  ClockTime = 264 s

Time = 0.00425

Courant Number mean: 0.0570983 max: 0.485442
[INFO] MatrixAssemblyU: 127.623 [ms]
DILUPBiCGStab:  Solving for Ux, Initial residual = 0.00551687, Final residual = 8.98918e-05, No Iterations 5
DILUPBiCGStab:  Solving for Uy, Initial residual = 0.0132551, Final residual = 0.00019258, No Iterations 5
DILUPBiCGStab:  Solving for Uz, Initial residual = 0.045565, Final residual = 0.00212912, No Iterations 5
[INFO] MomentumPredictor: 937.753 [ms]
[INFO] MatrixAssemblyPI: 138.047 [ms]
[INFO] AdjustPhi: 6.306 [ms]
[INFO] ConstrainPressure: 0.002 [ms]
[INFO] MatrixAssemblyPII: 38.964 [ms]
[OGL LOG][Proc: 0]: global_index_init: 0.056 [ms]
[OGL LOG][Proc: 0]p_local_coeffs: call_update: 0 [ms]
[OGL LOG][Proc: 0]p_non_local_coeffs: call_update: 0 [ms]
[OGL LOG][Proc: 0]p: update_local_matrix_data: 25.734 [ms]
[OGL LOG][Proc: 0]p: update_non_local_matrix_data: 0.585 [ms]
[OGL LOG][Proc: 0]p: regenerate_distributed_matrix: 84.68 [ms]
[OGL LOG][Proc: 0]p_matrix: call_update: 86.91 [ms]
[OGL LOG][Proc: 0]p_rhs: call_update: 0.94 [ms]
[OGL LOG][Preconditioner.H:121] Generate preconditioner BJ MaxBlockSize 1
[OGL LOG][Proc: 0]p: init_precond: 3.234 [ms]
[OGL LOG][StoppingCriterion.H:239] Creating stopping criterion with minIter 883 frequency 24
[OGL LOG][Proc: 0]p: generate_solver: 0.018 [ms]
[OGL LOG][Proc: 0]p: solve: 4233.61 [ms]
[OGL LOG][Proc: 0]p: copy_x_back: 1.782 [ms]
[OGL LOG][lduLduBase.H:330] 
Statistics:
	Time per iteration: 4762 [mu s]
	Time per residual norm calculation: 2487.000000 [mu s]
	Time per iteration and DOF: 0.595250 [ns]
	Retrieve results bandwidth 2.244000 [GByte/s]
[OGL LOG][Proc: 0]p: solve_multi_gpu: 4332.87 [ms]
BJcudaGKOCG:  Solving for p, Initial residual = 0.25122, Final residual = 5.89913e-05, No Iterations 889
[INFO] SolveP: 4364.35 [ms]
time step continuity errors : sum local = 2.7808e-09, global = -4.10525e-21, cumulative = -6.06997e-20
[INFO] ContinuityError: 15.151 [ms]
[INFO] CorrectBoundary: 0.301 [ms]
[INFO] PISOStep: 4609.6 [ms]
[INFO] MatrixAssemblyPI: 133.492 [ms]
[INFO] AdjustPhi: 6.855 [ms]
[INFO] ConstrainPressure: 0.004 [ms]
[INFO] MatrixAssemblyPII: 39.179 [ms]
[OGL LOG][Proc: 0]: global_index_init: 0.105 [ms]
[OGL LOG][Proc: 0]p_local_coeffs: call_update: 0 [ms]
[OGL LOG][Proc: 0]p_non_local_coeffs: call_update: 0 [ms]
[OGL LOG][Proc: 0]p: update_local_matrix_data: 26.365 [ms]
[OGL LOG][Proc: 0]p: update_non_local_matrix_data: 0.545 [ms]
[OGL LOG][Proc: 0]p: regenerate_distributed_matrix: 86.109 [ms]
[OGL LOG][Proc: 0]p_matrix: call_update: 88.693 [ms]
[OGL LOG][Proc: 0]p_rhs: call_update: 0.577 [ms]
[OGL LOG][Preconditioner.H:121] Generate preconditioner BJ MaxBlockSize 1
[OGL LOG][Proc: 0]p: init_precond: 2.574 [ms]
[OGL LOG][StoppingCriterion.H:239] Creating stopping criterion with minIter 533 frequency 18
[OGL LOG][Proc: 0]p: generate_solver: 0.017 [ms]
[OGL LOG][Proc: 0]p: solve: 3202.43 [ms]
[OGL LOG][Proc: 0]p: copy_x_back: 1.642 [ms]
[OGL LOG][lduLduBase.H:330] 
Statistics:
	Time per iteration: 4801 [mu s]
	Time per residual norm calculation: 2490.000000 [mu s]
	Time per iteration and DOF: 0.600125 [ns]
	Retrieve results bandwidth 2.436000 [GByte/s]
[OGL LOG][Proc: 0]p: solve_multi_gpu: 3299.81 [ms]
BJcudaGKOCG:  Solving for p, Initial residual = 0.220226, Final residual = 9.32708e-05, No Iterations 667
[INFO] SolveP: 3333.89 [ms]
time step continuity errors : sum local = 4.2179e-09, global = -7.42545e-21, cumulative = -6.81252e-20
[INFO] ContinuityError: 14.413 [ms]
[INFO] CorrectBoundary: 0.244 [ms]
[INFO] PISOStep: 3574.99 [ms]
[INFO] TimeStep: 9265.28 [ms]
ExecutionTime = 270.63 s  ClockTime = 274 s

Time = 0.0045

Courant Number mean: 0.0582668 max: 0.485813
[INFO] MatrixAssemblyU: 125.4 [ms]
DILUPBiCGStab:  Solving for Ux, Initial residual = 0.00512825, Final residual = 8.03278e-05, No Iterations 5
DILUPBiCGStab:  Solving for Uy, Initial residual = 0.0122851, Final residual = 0.000166483, No Iterations 5
DILUPBiCGStab:  Solving for Uz, Initial residual = 0.0407795, Final residual = 0.00185679, No Iterations 5
[INFO] MomentumPredictor: 937.192 [ms]
[INFO] MatrixAssemblyPI: 137.819 [ms]
[INFO] AdjustPhi: 6.17 [ms]
[INFO] ConstrainPressure: 0.003 [ms]
[INFO] MatrixAssemblyPII: 39.442 [ms]
[OGL LOG][Proc: 0]: global_index_init: 0.112 [ms]
[OGL LOG][Proc: 0]p_local_coeffs: call_update: 0 [ms]
[OGL LOG][Proc: 0]p_non_local_coeffs: call_update: 0 [ms]
[OGL LOG][Proc: 0]p: update_local_matrix_data: 26.209 [ms]
[OGL LOG][Proc: 0]p: update_non_local_matrix_data: 0.516 [ms]
[OGL LOG][Proc: 0]p: regenerate_distributed_matrix: 83.825 [ms]
[OGL LOG][Proc: 0]p_matrix: call_update: 85.824 [ms]
[OGL LOG][Proc: 0]p_rhs: call_update: 0.549 [ms]
[OGL LOG][Preconditioner.H:121] Generate preconditioner BJ MaxBlockSize 1
[OGL LOG][Proc: 0]p: init_precond: 3.372 [ms]
[OGL LOG][StoppingCriterion.H:239] Creating stopping criterion with minIter 400 frequency 16
[OGL LOG][Proc: 0]p: generate_solver: 0.017 [ms]
[OGL LOG][Proc: 0]p: solve: 3489.78 [ms]
[OGL LOG][Proc: 0]p: copy_x_back: 1.719 [ms]
[OGL LOG][lduLduBase.H:330] 
Statistics:
	Time per iteration: 4840 [mu s]
	Time per residual norm calculation: 2627.000000 [mu s]
	Time per iteration and DOF: 0.605000 [ns]
	Retrieve results bandwidth 2.326000 [GByte/s]
[OGL LOG][Proc: 0]p: solve_multi_gpu: 3586.71 [ms]
BJcudaGKOCG:  Solving for p, Initial residual = 0.227824, Final residual = 8.09018e-05, No Iterations 721
[INFO] SolveP: 3618.63 [ms]
time step continuity errors : sum local = 3.85683e-09, global = -3.37097e-21, cumulative = -7.14961e-20
[INFO] ContinuityError: 15.395 [ms]
[INFO] CorrectBoundary: 0.283 [ms]
[INFO] PISOStep: 3864.26 [ms]
[INFO] MatrixAssemblyPI: 134.106 [ms]
[INFO] AdjustPhi: 6.245 [ms]
[INFO] ConstrainPressure: 0.002 [ms]
[INFO] MatrixAssemblyPII: 39.301 [ms]
[OGL LOG][Proc: 0]: global_index_init: 0.017 [ms]
[OGL LOG][Proc: 0]p_local_coeffs: call_update: 0 [ms]
[OGL LOG][Proc: 0]p_non_local_coeffs: call_update: 0 [ms]
[OGL LOG][Proc: 0]p: update_local_matrix_data: 26.796 [ms]
[OGL LOG][Proc: 0]p: update_non_local_matrix_data: 0.522 [ms]
[OGL LOG][Proc: 0]p: regenerate_distributed_matrix: 86.298 [ms]
[OGL LOG][Proc: 0]p_matrix: call_update: 88.495 [ms]
[OGL LOG][Proc: 0]p_rhs: call_update: 0.707 [ms]
[OGL LOG][Preconditioner.H:121] Generate preconditioner BJ MaxBlockSize 1
[OGL LOG][Proc: 0]p: init_precond: 3.01 [ms]
[OGL LOG][StoppingCriterion.H:239] Creating stopping criterion with minIter 432 frequency 16
[OGL LOG][Proc: 0]p: generate_solver: 0.015 [ms]
[OGL LOG][Proc: 0]p: solve: 3329.94 [ms]
[OGL LOG][Proc: 0]p: copy_x_back: 1.729 [ms]
[OGL LOG][lduLduBase.H:330] 
Statistics:
	Time per iteration: 4833 [mu s]
	Time per residual norm calculation: 2493.000000 [mu s]
	Time per iteration and DOF: 0.604125 [ns]
	Retrieve results bandwidth 2.313000 [GByte/s]
[OGL LOG][Proc: 0]p: solve_multi_gpu: 3428.49 [ms]
BJcudaGKOCG:  Solving for p, Initial residual = 0.200472, Final residual = 9.76001e-05, No Iterations 689
[INFO] SolveP: 3461.07 [ms]
time step continuity errors : sum local = 4.29528e-09, global = -4.5668e-21, cumulative = -7.60629e-20
[INFO] ContinuityError: 15.301 [ms]
[INFO] CorrectBoundary: 1.465 [ms]
[INFO] PISOStep: 3703.29 [ms]
[INFO] TimeStep: 8645.13 [ms]
ExecutionTime = 279.26 s  ClockTime = 282 s

Time = 0.00475

Courant Number mean: 0.0593738 max: 0.486111
[INFO] MatrixAssemblyU: 124.973 [ms]
DILUPBiCGStab:  Solving for Ux, Initial residual = 0.00477207, Final residual = 7.12017e-05, No Iterations 5
DILUPBiCGStab:  Solving for Uy, Initial residual = 0.0113466, Final residual = 0.000153801, No Iterations 5
DILUPBiCGStab:  Solving for Uz, Initial residual = 0.0368314, Final residual = 0.00167097, No Iterations 5
[INFO] MomentumPredictor: 931.281 [ms]
[INFO] MatrixAssemblyPI: 137.363 [ms]
[INFO] AdjustPhi: 6.51 [ms]
[INFO] ConstrainPressure: 0.003 [ms]
[INFO] MatrixAssemblyPII: 39.273 [ms]
[OGL LOG][Proc: 0]: global_index_init: 0.087 [ms]
[OGL LOG][Proc: 0]p_local_coeffs: call_update: 0 [ms]
[OGL LOG][Proc: 0]p_non_local_coeffs: call_update: 0 [ms]
[OGL LOG][Proc: 0]p: update_local_matrix_data: 26.37 [ms]
[OGL LOG][Proc: 0]p: update_non_local_matrix_data: 0.542 [ms]
[OGL LOG][Proc: 0]p: regenerate_distributed_matrix: 84.047 [ms]
[OGL LOG][Proc: 0]p_matrix: call_update: 86.255 [ms]
[OGL LOG][Proc: 0]p_rhs: call_update: 0.766 [ms]
[OGL LOG][Preconditioner.H:121] Generate preconditioner BJ MaxBlockSize 1
[OGL LOG][Proc: 0]p: init_precond: 2.515 [ms]
[OGL LOG][StoppingCriterion.H:239] Creating stopping criterion with minIter 413 frequency 16
[OGL LOG][Proc: 0]p: generate_solver: 0.015 [ms]
[OGL LOG][Proc: 0]p: solve: 7151.78 [ms]
[OGL LOG][Proc: 0]p: copy_x_back: 2.135 [ms]
[OGL LOG][lduLduBase.H:330] 
Statistics:
	Time per iteration: 4855 [mu s]
	Time per residual norm calculation: 2487.000000 [mu s]
	Time per iteration and DOF: 0.606875 [ns]
	Retrieve results bandwidth 1.873000 [GByte/s]
[OGL LOG][Proc: 0]p: solve_multi_gpu: 7248.35 [ms]
BJcudaGKOCG:  Solving for p, Initial residual = 0.201892, Final residual = 6.83113e-05, No Iterations 1473
[INFO] SolveP: 7280.88 [ms]
time step continuity errors : sum local = 2.90863e-09, global = -5.78702e-21, cumulative = -8.18499e-20
[INFO] ContinuityError: 14.82 [ms]
[INFO] CorrectBoundary: 0.325 [ms]
[INFO] PISOStep: 7527.6 [ms]
[INFO] MatrixAssemblyPI: 135.196 [ms]
[INFO] AdjustPhi: 6.304 [ms]
[INFO] ConstrainPressure: 0.003 [ms]
[INFO] MatrixAssemblyPII: 39.776 [ms]
[OGL LOG][Proc: 0]: global_index_init: 0.02 [ms]
[OGL LOG][Proc: 0]p_local_coeffs: call_update: 0 [ms]
[OGL LOG][Proc: 0]p_non_local_coeffs: call_update: 0 [ms]
[OGL LOG][Proc: 0]p: update_local_matrix_data: 27.057 [ms]
[OGL LOG][Proc: 0]p: update_non_local_matrix_data: 0.533 [ms]
[OGL LOG][Proc: 0]p: regenerate_distributed_matrix: 85.737 [ms]
[OGL LOG][Proc: 0]p_matrix: call_update: 88.048 [ms]
[OGL LOG][Proc: 0]p_rhs: call_update: 0.745 [ms]
[OGL LOG][Preconditioner.H:121] Generate preconditioner BJ MaxBlockSize 1
[OGL LOG][Proc: 0]p: init_precond: 2.977 [ms]
[OGL LOG][StoppingCriterion.H:239] Creating stopping criterion with minIter 883 frequency 24
[OGL LOG][Proc: 0]p: generate_solver: 0.014 [ms]
[OGL LOG][Proc: 0]p: solve: 7007.98 [ms]
[OGL LOG][Proc: 0]p: copy_x_back: 1.69 [ms]
[OGL LOG][lduLduBase.H:330] 
Statistics:
	Time per iteration: 4783 [mu s]
	Time per residual norm calculation: 2483.000000 [mu s]
	Time per iteration and DOF: 0.597875 [ns]
	Retrieve results bandwidth 2.366000 [GByte/s]
[OGL LOG][Proc: 0]p: solve_multi_gpu: 7105.57 [ms]
BJcudaGKOCG:  Solving for p, Initial residual = 0.176603, Final residual = 8.42436e-05, No Iterations 1465
[INFO] SolveP: 7139.04 [ms]
time step continuity errors : sum local = 3.58881e-09, global = -4.169e-21, cumulative = -8.60189e-20
[INFO] ContinuityError: 16.389 [ms]
[INFO] CorrectBoundary: 1.118 [ms]
[INFO] PISOStep: 7384.19 [ms]
[INFO] TimeStep: 15983.3 [ms]
ExecutionTime = 295.22 s  ClockTime = 298 s

Time = 0.005

Courant Number mean: 0.0604236 max: 0.486415
[INFO] MatrixAssemblyU: 125.689 [ms]
DILUPBiCGStab:  Solving for Ux, Initial residual = 0.00447474, Final residual = 6.44868e-05, No Iterations 5
DILUPBiCGStab:  Solving for Uy, Initial residual = 0.0105966, Final residual = 0.000135797, No Iterations 5
DILUPBiCGStab:  Solving for Uz, Initial residual = 0.0335267, Final residual = 0.00143474, No Iterations 5
[INFO] MomentumPredictor: 937.54 [ms]
[INFO] MatrixAssemblyPI: 138.939 [ms]
[INFO] AdjustPhi: 6.239 [ms]
[INFO] ConstrainPressure: 0.002 [ms]
[INFO] MatrixAssemblyPII: 39.518 [ms]
[OGL LOG][Proc: 0]: global_index_init: 0.062 [ms]
[OGL LOG][Proc: 0]p_local_coeffs: call_update: 0 [ms]
[OGL LOG][Proc: 0]p_non_local_coeffs: call_update: 0 [ms]
[OGL LOG][Proc: 0]p: update_local_matrix_data: 26.063 [ms]
[OGL LOG][Proc: 0]p: update_non_local_matrix_data: 0.534 [ms]
[OGL LOG][Proc: 0]p: regenerate_distributed_matrix: 83.27 [ms]
[OGL LOG][Proc: 0]p_matrix: call_update: 85.345 [ms]
[OGL LOG][Proc: 0]p_rhs: call_update: 0.896 [ms]
[OGL LOG][Preconditioner.H:121] Generate preconditioner BJ MaxBlockSize 1
[OGL LOG][Proc: 0]p: init_precond: 2.574 [ms]
[OGL LOG][StoppingCriterion.H:239] Creating stopping criterion with minIter 879 frequency 24
[OGL LOG][Proc: 0]p: generate_solver: 0.022 [ms]
[OGL LOG][Proc: 0]p: solve: 7013.71 [ms]
[OGL LOG][Proc: 0]p: copy_x_back: 1.885 [ms]
[OGL LOG][lduLduBase.H:330] 
Statistics:
	Time per iteration: 4787 [mu s]
	Time per residual norm calculation: 2486.000000 [mu s]
	Time per iteration and DOF: 0.598375 [ns]
	Retrieve results bandwidth 2.122000 [GByte/s]
[OGL LOG][Proc: 0]p: solve_multi_gpu: 7110.12 [ms]
BJcudaGKOCG:  Solving for p, Initial residual = 0.183369, Final residual = 8.66205e-05, No Iterations 1465
[INFO] SolveP: 7142.21 [ms]
time step continuity errors : sum local = 3.56291e-09, global = -2.93067e-21, cumulative = -8.89496e-20
[INFO] ContinuityError: 14.192 [ms]
[INFO] CorrectBoundary: 1.065 [ms]
[INFO] PISOStep: 7390.76 [ms]
[INFO] MatrixAssemblyPI: 133.656 [ms]
[INFO] AdjustPhi: 6.222 [ms]
[INFO] ConstrainPressure: 0.002 [ms]
[INFO] MatrixAssemblyPII: 39.484 [ms]
[OGL LOG][Proc: 0]: global_index_init: 0.018 [ms]
[OGL LOG][Proc: 0]p_local_coeffs: call_update: 0 [ms]
[OGL LOG][Proc: 0]p_non_local_coeffs: call_update: 0 [ms]
[OGL LOG][Proc: 0]p: update_local_matrix_data: 27.823 [ms]
[OGL LOG][Proc: 0]p: update_non_local_matrix_data: 0.593 [ms]
[OGL LOG][Proc: 0]p: regenerate_distributed_matrix: 86.255 [ms]
[OGL LOG][Proc: 0]p_matrix: call_update: 88.243 [ms]
[OGL LOG][Proc: 0]p_rhs: call_update: 0.667 [ms]
[OGL LOG][Preconditioner.H:121] Generate preconditioner BJ MaxBlockSize 1
[OGL LOG][Proc: 0]p: init_precond: 2.859 [ms]
[OGL LOG][StoppingCriterion.H:239] Creating stopping criterion with minIter 879 frequency 24
[OGL LOG][Proc: 0]p: generate_solver: 0.014 [ms]
[OGL LOG][Proc: 0]p: solve: 7010.95 [ms]
[OGL LOG][Proc: 0]p: copy_x_back: 1.78 [ms]
[OGL LOG][lduLduBase.H:330] 
Statistics:
	Time per iteration: 4785 [mu s]
	Time per residual norm calculation: 2492.000000 [mu s]
	Time per iteration and DOF: 0.598125 [ns]
	Retrieve results bandwidth 2.247000 [GByte/s]
[OGL LOG][Proc: 0]p: solve_multi_gpu: 7108.5 [ms]
BJcudaGKOCG:  Solving for p, Initial residual = 0.160977, Final residual = 7.85982e-05, No Iterations 1465
[INFO] SolveP: 7142.37 [ms]
time step continuity errors : sum local = 3.22753e-09, global = -2.92585e-21, cumulative = -9.18755e-20
[INFO] ContinuityError: 16.041 [ms]
[INFO] CorrectBoundary: 0.327 [ms]
[INFO] PISOStep: 7384.94 [ms]
[INFO] TimeStep: 15854.6 [ms]
ExecutionTime = 311.04 s  ClockTime = 314 s

End

Finalising parallel run
