/*---------------------------------------------------------------------------*\
| =========                 |                                                 |
| \\      /  F ield         | OpenFOAM: The Open Source CFD Toolbox           |
|  \\    /   O peration     | Version:  2306                                  |
|   \\  /    A nd           | Website:  www.openfoam.com                      |
|    \\/     M anipulation  |                                                 |
\*---------------------------------------------------------------------------*/
Build  : a6e826bd55-20230630 OPENFOAM=2306 version=v2306
Arch   : "LSB;label=32;scalar=64"
Exec   : icoFoam -parallel -case /tmp/lidDrivenCavity3D/workspace/1f18bd95c8523ba687d21b797dd3aa89/case
Date   : Dec 09 2023
Time   : 11:47:56
Host   : nla-gpu2.ianm.kit.edu
PID    : 273273
I/O    : uncollated
Case   : /tmp/lidDrivenCavity3D/workspace/1f18bd95c8523ba687d21b797dd3aa89/case
nProcs : 8
Hosts  :
(
    (nla-gpu2.ianm.kit.edu 8)
)
Pstream initialized with:
    floatTransfer      : false
    nProcsSimpleSum    : 0
    nonBlockingExchange: 0 (tuning: 0)
    exchange algorithm : -1
    commsType          : nonBlocking
    polling iterations : 0
trapFpe: Floating point exception trapping enabled (FOAM_SIGFPE).
fileModificationChecking : Monitoring run-time modified files using timeStampMaster (fileModificationSkew 5, maxFileModificationPolls 20)
allowSystemOperations : Allowing user-supplied system call operations

// * * * * * * * * * * * * * * * * * * * * * * * * * * * * * * * * * * * * * //
Create time

--> FOAM Warning : 
    From void* Foam::dlLibraryTable::openLibrary(const Foam::fileName&, bool)
    in file db/dynamicLibrary/dlLibraryTable/dlLibraryTable.C at line 188
    Could not load "libpetscFoam.so"
libpetscFoam.so: cannot open shared object file: No such file or directory
Create mesh for time = 0


PISO: Operating solver in PISO mode

Reading transportProperties

Reading field p

Reading field U

Reading/calculating face flux field phi


Starting time loop

Time = 0.000166

Courant Number mean: 8.14055e-18 max: 3.11001e-14
[INFO] MatrixAssemblyU: 347.875 [ms]
DILUPBiCGStab:  Solving for Ux, Initial residual = 1, Final residual = 0.0159896, No Iterations 5
DILUPBiCGStab:  Solving for Uy:  solution singularity
DILUPBiCGStab:  Solving for Uz:  solution singularity
[INFO] MomentumPredictor: 1624.55 [ms]
[INFO] MatrixAssemblyPI: 352.973 [ms]
[INFO] AdjustPhi: 18.899 [ms]
[INFO] ConstrainPressure: 0.012 [ms]
[INFO] MatrixAssemblyPII: 98.55 [ms]
[OGL LOG][lduLduBase.H:119] Initialising OGL
	OGL commit:  5ef1233
	Branch: feat/on_device_permute 
	Build type: Release
	Ginkgo version: 1.7.0 ( develop)
	Ginkgo commit: sparse-communicator
	MPI is GPU aware: 1
	Forces host buffer based communication: 0
	CPU ranks per GPU: 1
	Matrix format: Coo
	End OGL_INFO
[OGL LOG][Proc: 0]: global_index_init: 3.917 [ms]
[OGL LOG][Proc: 0]p_local_cols: call_init: 0.036 [ms]
[OGL LOG][Proc: 0]p_local_rows: call_init: 0.015 [ms]
[OGL LOG][Proc: 0]p_local_ldu_map: call_init: 0.006 [ms]
[OGL LOG][Proc: 0]p_local_coeffs: call_init: 0.011 [ms]
[OGL LOG][Proc: 0]p_non_local_cols: call_init: 0.004 [ms]
[OGL LOG][Proc: 0]p_non_local_rows: call_init: 0.002 [ms]
[OGL LOG][Proc: 0]p_non_local_ldu_map: call_init: 0.002 [ms]
[OGL LOG][Proc: 0]p_non_local_coeffs: call_init: 0.002 [ms]
[OGL LOG][Proc: 0]p: init_local_sparsity_pattern: 515.487 [ms]
[OGL LOG][Proc: 0]p: init_non_local_sparsity_pattern: 91.557 [ms]
[OGL LOG][Proc: 0]p: update_local_matrix_data: 47.26 [ms]
[OGL LOG][Proc: 0]p: update_non_local_matrix_data: 0.277 [ms]
[OGL LOG][Proc: 0]device_partition: call_init: 0.202 [ms]
[OGL LOG][Proc: 0]p_matrix: call_init: 170.561 [ms]
[OGL LOG][Proc: 0]p_rhs: call_init: 16.947 [ms]
[OGL LOG][Proc: 0]p_solution: call_init: 1.912 [ms]
[OGL LOG][Preconditioner.H:121] Generate preconditioner BJ MaxBlockSize 1
[OGL LOG][Proc: 0]p: init_precond: 4.238 [ms]
[OGL LOG][StoppingCriterion.H:373] Creating stopping criterion with minIter 0 frequency 1
[OGL LOG][Proc: 0]p: generate_solver: 0.018 [ms]
[OGL LOG][Proc: 0]p: solve: 6439.61 [ms]
[OGL LOG][Proc: 0]p: copy_x_back: 9.853 [ms]
[OGL LOG][lduLduBase.H:330] 
Statistics:
	Time per iteration: 2663 [mu s]
	Time per residual norm calculation: 1237.000000 [mu s]
	Time per iteration and DOF: 0.098630 [ns]
	Retrieve results bandwidth 2.740000 [GByte/s]
[OGL LOG][Proc: 0]p: solve_multi_gpu: 6666.92 [ms]
BJhipGKOCG:  Solving for p, Initial residual = 1, Final residual = 9.94605e-05, No Iterations 2418
[INFO] SolveP: 7567.98 [ms]
time step continuity errors : sum local = 4.02567e-09, global = 1.5084e-21, cumulative = 1.5084e-21
[INFO] ContinuityError: 48.308 [ms]
[INFO] CorrectBoundary: 1.028 [ms]
[INFO] PISOStep: 8205.68 [ms]
[INFO] MatrixAssemblyPI: 345.648 [ms]
[INFO] AdjustPhi: 18.614 [ms]
[INFO] ConstrainPressure: 0.005 [ms]
[INFO] MatrixAssemblyPII: 98.933 [ms]
[OGL LOG][Proc: 0]: global_index_init: 0.199 [ms]
[OGL LOG][Proc: 0]p_local_coeffs: call_update: 0.004 [ms]
[OGL LOG][Proc: 0]p_non_local_coeffs: call_update: 0 [ms]
[OGL LOG][Proc: 0]p: update_local_matrix_data: 39.25 [ms]
[OGL LOG][Proc: 0]p: update_non_local_matrix_data: 0.265 [ms]
[OGL LOG][Proc: 0]p_matrix: call_update: 23.989 [ms]
[OGL LOG][Proc: 0]p_rhs: call_update: 17.341 [ms]
[OGL LOG][Preconditioner.H:121] Generate preconditioner BJ MaxBlockSize 1
[OGL LOG][Proc: 0]p: init_precond: 1.201 [ms]
[OGL LOG][StoppingCriterion.H:373] Creating stopping criterion with minIter 1450 frequency 21
[OGL LOG][Proc: 0]p: generate_solver: 0.004 [ms]
[OGL LOG][Proc: 0]p: solve: 4383.76 [ms]
[OGL LOG][Proc: 0]p: copy_x_back: 11.405 [ms]
[OGL LOG][lduLduBase.H:330] 
Statistics:
	Time per iteration: 1814 [mu s]
	Time per residual norm calculation: 359.000000 [mu s]
	Time per iteration and DOF: 0.067185 [ns]
	Retrieve results bandwidth 2.367000 [GByte/s]
[OGL LOG][Proc: 0]p: solve_multi_gpu: 4440.31 [ms]
BJhipGKOCG:  Solving for p, Initial residual = 0.809676, Final residual = 7.93087e-05, No Iterations 2416
[INFO] SolveP: 4490.87 [ms]
time step continuity errors : sum local = 3.91712e-09, global = 3.10422e-23, cumulative = 1.53945e-21
[INFO] ContinuityError: 55.405 [ms]
[INFO] CorrectBoundary: 1.171 [ms]
[INFO] PISOStep: 5130.53 [ms]
[INFO] TimeStep: 15358.5 [ms]
ExecutionTime = 19.82 s  ClockTime = 17 s

Time = 0.000332

Courant Number mean: 0.0128497 max: 0.426563
[INFO] MatrixAssemblyU: 264.114 [ms]
DILUPBiCGStab:  Solving for Ux, Initial residual = 0.116942, Final residual = 0.00923007, No Iterations 5
DILUPBiCGStab:  Solving for Uy, Initial residual = 0.459876, Final residual = 0.0300232, No Iterations 5
DILUPBiCGStab:  Solving for Uz, Initial residual = 0.995327, Final residual = 0.0718278, No Iterations 5
[INFO] MomentumPredictor: 2984.47 [ms]
[INFO] MatrixAssemblyPI: 347.76 [ms]
[INFO] AdjustPhi: 19.646 [ms]
[INFO] ConstrainPressure: 0.004 [ms]
[INFO] MatrixAssemblyPII: 98.913 [ms]
[OGL LOG][Proc: 0]: global_index_init: 0.039 [ms]
[OGL LOG][Proc: 0]p_local_coeffs: call_update: 0 [ms]
[OGL LOG][Proc: 0]p_non_local_coeffs: call_update: 0 [ms]
[OGL LOG][Proc: 0]p: update_local_matrix_data: 38.807 [ms]
[OGL LOG][Proc: 0]p: update_non_local_matrix_data: 0.249 [ms]
[OGL LOG][Proc: 0]p_matrix: call_update: 23.887 [ms]
[OGL LOG][Proc: 0]p_rhs: call_update: 7.935 [ms]
[OGL LOG][Preconditioner.H:121] Generate preconditioner BJ MaxBlockSize 1
[OGL LOG][Proc: 0]p: init_precond: 1.131 [ms]
[OGL LOG][StoppingCriterion.H:373] Creating stopping criterion with minIter 1449 frequency 13
[OGL LOG][Proc: 0]p: generate_solver: 0.003 [ms]
[OGL LOG][Proc: 0]p: solve: 4348.95 [ms]
[OGL LOG][Proc: 0]p: copy_x_back: 9.753 [ms]
[OGL LOG][lduLduBase.H:330] 
Statistics:
	Time per iteration: 1827 [mu s]
	Time per residual norm calculation: 334.000000 [mu s]
	Time per iteration and DOF: 0.067667 [ns]
	Retrieve results bandwidth 2.768000 [GByte/s]
[OGL LOG][Proc: 0]p: solve_multi_gpu: 4396.9 [ms]
BJhipGKOCG:  Solving for p, Initial residual = 0.878214, Final residual = 8.13789e-05, No Iterations 2380
[INFO] SolveP: 4446.73 [ms]
time step continuity errors : sum local = 7.73126e-09, global = 9.936e-22, cumulative = 2.53305e-21
[INFO] ContinuityError: 53.624 [ms]
[INFO] CorrectBoundary: 6.417 [ms]
[INFO] PISOStep: 5089.95 [ms]
[INFO] MatrixAssemblyPI: 340.063 [ms]
[INFO] AdjustPhi: 18.317 [ms]
[INFO] ConstrainPressure: 0.005 [ms]
[INFO] MatrixAssemblyPII: 98.299 [ms]
[OGL LOG][Proc: 0]: global_index_init: 0.05 [ms]
[OGL LOG][Proc: 0]p_local_coeffs: call_update: 0 [ms]
[OGL LOG][Proc: 0]p_non_local_coeffs: call_update: 0 [ms]
[OGL LOG][Proc: 0]p: update_local_matrix_data: 39.371 [ms]
[OGL LOG][Proc: 0]p: update_non_local_matrix_data: 0.238 [ms]
[OGL LOG][Proc: 0]p_matrix: call_update: 26.65 [ms]
[OGL LOG][Proc: 0]p_rhs: call_update: 6.09 [ms]
[OGL LOG][Preconditioner.H:121] Generate preconditioner BJ MaxBlockSize 1
[OGL LOG][Proc: 0]p: init_precond: 1.106 [ms]
[OGL LOG][StoppingCriterion.H:373] Creating stopping criterion with minIter 1428 frequency 13
[OGL LOG][Proc: 0]p: generate_solver: 0.004 [ms]
[OGL LOG][Proc: 0]p: solve: 4290.83 [ms]
[OGL LOG][Proc: 0]p: copy_x_back: 9.699 [ms]
[OGL LOG][lduLduBase.H:330] 
Statistics:
	Time per iteration: 1802 [mu s]
	Time per residual norm calculation: 307.000000 [mu s]
	Time per iteration and DOF: 0.066741 [ns]
	Retrieve results bandwidth 2.783000 [GByte/s]
[OGL LOG][Proc: 0]p: solve_multi_gpu: 4336.54 [ms]
BJhipGKOCG:  Solving for p, Initial residual = 0.826382, Final residual = 7.5077e-05, No Iterations 2380
[INFO] SolveP: 4388.73 [ms]
time step continuity errors : sum local = 7.26429e-09, global = 8.51443e-22, cumulative = 3.38449e-21
[INFO] ContinuityError: 52.007 [ms]
[INFO] CorrectBoundary: 2.635 [ms]
[INFO] PISOStep: 5015.71 [ms]
[INFO] TimeStep: 13398.9 [ms]
ExecutionTime = 36.13 s  ClockTime = 31 s

Time = 0.000498

Courant Number mean: 0.0198262 max: 0.491804
[INFO] MatrixAssemblyU: 262.171 [ms]
DILUPBiCGStab:  Solving for Ux, Initial residual = 0.0544577, Final residual = 0.00348866, No Iterations 5
DILUPBiCGStab:  Solving for Uy, Initial residual = 0.226377, Final residual = 0.0156761, No Iterations 5
DILUPBiCGStab:  Solving for Uz, Initial residual = 0.854743, Final residual = 0.0552295, No Iterations 5
[INFO] MomentumPredictor: 2976.67 [ms]
[INFO] MatrixAssemblyPI: 346.472 [ms]
[INFO] AdjustPhi: 18.779 [ms]
[INFO] ConstrainPressure: 0.005 [ms]
[INFO] MatrixAssemblyPII: 101.484 [ms]
[OGL LOG][Proc: 0]: global_index_init: 0.086 [ms]
[OGL LOG][Proc: 0]p_local_coeffs: call_update: 0 [ms]
[OGL LOG][Proc: 0]p_non_local_coeffs: call_update: 0 [ms]
[OGL LOG][Proc: 0]p: update_local_matrix_data: 38.618 [ms]
[OGL LOG][Proc: 0]p: update_non_local_matrix_data: 0.245 [ms]
[OGL LOG][Proc: 0]p_matrix: call_update: 27.443 [ms]
[OGL LOG][Proc: 0]p_rhs: call_update: 5.168 [ms]
[OGL LOG][Preconditioner.H:121] Generate preconditioner BJ MaxBlockSize 1
[OGL LOG][Proc: 0]p: init_precond: 1.127 [ms]
[OGL LOG][StoppingCriterion.H:373] Creating stopping criterion with minIter 1428 frequency 13
[OGL LOG][Proc: 0]p: generate_solver: 0.004 [ms]
[OGL LOG][Proc: 0]p: solve: 2607.89 [ms]
[OGL LOG][Proc: 0]p: copy_x_back: 9.381 [ms]
[OGL LOG][lduLduBase.H:330] 
Statistics:
	Time per iteration: 1822 [mu s]
	Time per residual norm calculation: 342.000000 [mu s]
	Time per iteration and DOF: 0.067481 [ns]
	Retrieve results bandwidth 2.878000 [GByte/s]
[OGL LOG][Proc: 0]p: solve_multi_gpu: 2653.58 [ms]
BJhipGKOCG:  Solving for p, Initial residual = 0.913751, Final residual = 6.91964e-05, No Iterations 1431
[INFO] SolveP: 2707.54 [ms]
time step continuity errors : sum local = 7.69247e-09, global = -9.15631e-22, cumulative = 2.46886e-21
[INFO] ContinuityError: 54.599 [ms]
[INFO] CorrectBoundary: 2.997 [ms]
[INFO] PISOStep: 3344.93 [ms]
[INFO] MatrixAssemblyPI: 338.751 [ms]
[INFO] AdjustPhi: 19.476 [ms]
[INFO] ConstrainPressure: 0.004 [ms]
[INFO] MatrixAssemblyPII: 98.925 [ms]
[OGL LOG][Proc: 0]: global_index_init: 0.082 [ms]
[OGL LOG][Proc: 0]p_local_coeffs: call_update: 0 [ms]
[OGL LOG][Proc: 0]p_non_local_coeffs: call_update: 0 [ms]
[OGL LOG][Proc: 0]p: update_local_matrix_data: 39.175 [ms]
[OGL LOG][Proc: 0]p: update_non_local_matrix_data: 0.26 [ms]
[OGL LOG][Proc: 0]p_matrix: call_update: 40.507 [ms]
[OGL LOG][Proc: 0]p_rhs: call_update: 5.906 [ms]
[OGL LOG][Preconditioner.H:121] Generate preconditioner BJ MaxBlockSize 1
[OGL LOG][Proc: 0]p: init_precond: 1.853 [ms]
[OGL LOG][StoppingCriterion.H:373] Creating stopping criterion with minIter 858 frequency 10
[OGL LOG][Proc: 0]p: generate_solver: 0.003 [ms]
[OGL LOG][Proc: 0]p: solve: 2164.24 [ms]
[OGL LOG][Proc: 0]p: copy_x_back: 9.61 [ms]
[OGL LOG][lduLduBase.H:330] 
Statistics:
	Time per iteration: 1880 [mu s]
	Time per residual norm calculation: 350.000000 [mu s]
	Time per iteration and DOF: 0.069630 [ns]
	Retrieve results bandwidth 2.809000 [GByte/s]
[OGL LOG][Proc: 0]p: solve_multi_gpu: 2223.65 [ms]
BJhipGKOCG:  Solving for p, Initial residual = 0.882686, Final residual = 8.97555e-05, No Iterations 1151
[INFO] SolveP: 2273.56 [ms]
time step continuity errors : sum local = 9.37786e-09, global = 9.67157e-22, cumulative = 3.43602e-21
[INFO] ContinuityError: 51.054 [ms]
[INFO] CorrectBoundary: 1.077 [ms]
[INFO] PISOStep: 2895.74 [ms]
[INFO] TimeStep: 9523.85 [ms]
ExecutionTime = 47.21 s  ClockTime = 40 s

Time = 0.000664

Courant Number mean: 0.0239197 max: 0.47201
[INFO] MatrixAssemblyU: 262.703 [ms]
DILUPBiCGStab:  Solving for Ux, Initial residual = 0.0384976, Final residual = 0.00279687, No Iterations 5
DILUPBiCGStab:  Solving for Uy, Initial residual = 0.174096, Final residual = 0.0125978, No Iterations 5
DILUPBiCGStab:  Solving for Uz, Initial residual = 0.73012, Final residual = 0.0385543, No Iterations 5
[INFO] MomentumPredictor: 2975.41 [ms]
[INFO] MatrixAssemblyPI: 343.749 [ms]
[INFO] AdjustPhi: 20.2 [ms]
[INFO] ConstrainPressure: 0.005 [ms]
[INFO] MatrixAssemblyPII: 98.89 [ms]
[OGL LOG][Proc: 0]: global_index_init: 0.036 [ms]
[OGL LOG][Proc: 0]p_local_coeffs: call_update: 0 [ms]
[OGL LOG][Proc: 0]p_non_local_coeffs: call_update: 0 [ms]
[OGL LOG][Proc: 0]p: update_local_matrix_data: 38.988 [ms]
[OGL LOG][Proc: 0]p: update_non_local_matrix_data: 0.258 [ms]
[OGL LOG][Proc: 0]p_matrix: call_update: 25.489 [ms]
[OGL LOG][Proc: 0]p_rhs: call_update: 5.031 [ms]
[OGL LOG][Preconditioner.H:121] Generate preconditioner BJ MaxBlockSize 1
[OGL LOG][Proc: 0]p: init_precond: 1.151 [ms]
[OGL LOG][StoppingCriterion.H:373] Creating stopping criterion with minIter 690 frequency 9
[OGL LOG][Proc: 0]p: generate_solver: 0.004 [ms]
[OGL LOG][Proc: 0]p: solve: 2154.14 [ms]
[OGL LOG][Proc: 0]p: copy_x_back: 10.142 [ms]
[OGL LOG][lduLduBase.H:330] 
Statistics:
	Time per iteration: 1868 [mu s]
	Time per residual norm calculation: 333.000000 [mu s]
	Time per iteration and DOF: 0.069185 [ns]
	Retrieve results bandwidth 2.662000 [GByte/s]
[OGL LOG][Proc: 0]p: solve_multi_gpu: 2197.44 [ms]
BJhipGKOCG:  Solving for p, Initial residual = 0.890283, Final residual = 9.45889e-05, No Iterations 1153
[INFO] SolveP: 2247.31 [ms]
time step continuity errors : sum local = 1.12895e-08, global = -2.63364e-22, cumulative = 3.17265e-21
[INFO] ContinuityError: 49.16 [ms]
[INFO] CorrectBoundary: 1.502 [ms]
[INFO] PISOStep: 2873.56 [ms]
[INFO] MatrixAssemblyPI: 336.547 [ms]
[INFO] AdjustPhi: 19.8 [ms]
[INFO] ConstrainPressure: 0.004 [ms]
[INFO] MatrixAssemblyPII: 98.417 [ms]
[OGL LOG][Proc: 0]: global_index_init: 0.043 [ms]
[OGL LOG][Proc: 0]p_local_coeffs: call_update: 0 [ms]
[OGL LOG][Proc: 0]p_non_local_coeffs: call_update: 0 [ms]
[OGL LOG][Proc: 0]p: update_local_matrix_data: 38.852 [ms]
[OGL LOG][Proc: 0]p: update_non_local_matrix_data: 0.24 [ms]
[OGL LOG][Proc: 0]p_matrix: call_update: 22.946 [ms]
[OGL LOG][Proc: 0]p_rhs: call_update: 10.388 [ms]
[OGL LOG][Preconditioner.H:121] Generate preconditioner BJ MaxBlockSize 1
[OGL LOG][Proc: 0]p: init_precond: 1.099 [ms]
[OGL LOG][StoppingCriterion.H:373] Creating stopping criterion with minIter 691 frequency 9
[OGL LOG][Proc: 0]p: generate_solver: 0.004 [ms]
[OGL LOG][Proc: 0]p: solve: 2148.3 [ms]
[OGL LOG][Proc: 0]p: copy_x_back: 9.361 [ms]
[OGL LOG][lduLduBase.H:330] 
Statistics:
	Time per iteration: 1877 [mu s]
	Time per residual norm calculation: 349.000000 [mu s]
	Time per iteration and DOF: 0.069519 [ns]
	Retrieve results bandwidth 2.884000 [GByte/s]
[OGL LOG][Proc: 0]p: solve_multi_gpu: 2194.13 [ms]
BJhipGKOCG:  Solving for p, Initial residual = 0.830218, Final residual = 9.46688e-05, No Iterations 1144
[INFO] SolveP: 2246.4 [ms]
time step continuity errors : sum local = 1.0948e-08, global = 9.15109e-22, cumulative = 4.08776e-21
[INFO] ContinuityError: 50.311 [ms]
[INFO] CorrectBoundary: 1.594 [ms]
[INFO] PISOStep: 2867.72 [ms]
[INFO] TimeStep: 9026.72 [ms]
ExecutionTime = 57.62 s  ClockTime = 49 s

Time = 0.00083

Courant Number mean: 0.0274473 max: 0.504971
[INFO] MatrixAssemblyU: 264.267 [ms]
DILUPBiCGStab:  Solving for Ux, Initial residual = 0.0323943, Final residual = 0.00238057, No Iterations 5
DILUPBiCGStab:  Solving for Uy, Initial residual = 0.129656, Final residual = 0.0105551, No Iterations 5
DILUPBiCGStab:  Solving for Uz, Initial residual = 0.676133, Final residual = 0.0332414, No Iterations 5
[INFO] MomentumPredictor: 2978.52 [ms]
[INFO] MatrixAssemblyPI: 343.457 [ms]
[INFO] AdjustPhi: 21.579 [ms]
[INFO] ConstrainPressure: 0.004 [ms]
[INFO] MatrixAssemblyPII: 98.521 [ms]
[OGL LOG][Proc: 0]: global_index_init: 0.053 [ms]
[OGL LOG][Proc: 0]p_local_coeffs: call_update: 0 [ms]
[OGL LOG][Proc: 0]p_non_local_coeffs: call_update: 0 [ms]
[OGL LOG][Proc: 0]p: update_local_matrix_data: 38.617 [ms]
[OGL LOG][Proc: 0]p: update_non_local_matrix_data: 0.251 [ms]
[OGL LOG][Proc: 0]p_matrix: call_update: 26.63 [ms]
[OGL LOG][Proc: 0]p_rhs: call_update: 4.895 [ms]
[OGL LOG][Preconditioner.H:121] Generate preconditioner BJ MaxBlockSize 1
[OGL LOG][Proc: 0]p: init_precond: 1.184 [ms]
[OGL LOG][StoppingCriterion.H:373] Creating stopping criterion with minIter 686 frequency 9
[OGL LOG][Proc: 0]p: generate_solver: 0.004 [ms]
[OGL LOG][Proc: 0]p: solve: 3936.06 [ms]
[OGL LOG][Proc: 0]p: copy_x_back: 9.427 [ms]
[OGL LOG][lduLduBase.H:330] 
Statistics:
	Time per iteration: 1821 [mu s]
	Time per residual norm calculation: 341.000000 [mu s]
	Time per iteration and DOF: 0.067444 [ns]
	Retrieve results bandwidth 2.864000 [GByte/s]
[OGL LOG][Proc: 0]p: solve_multi_gpu: 3980.42 [ms]
BJhipGKOCG:  Solving for p, Initial residual = 0.910502, Final residual = 9.86044e-05, No Iterations 2161
[INFO] SolveP: 4030.44 [ms]
time step continuity errors : sum local = 1.08759e-08, global = 6.93031e-22, cumulative = 4.78079e-21
[INFO] ContinuityError: 50.854 [ms]
[INFO] CorrectBoundary: 1.227 [ms]
[INFO] PISOStep: 4659.11 [ms]
[INFO] MatrixAssemblyPI: 337.325 [ms]
[INFO] AdjustPhi: 22.482 [ms]
[INFO] ConstrainPressure: 0.003 [ms]
[INFO] MatrixAssemblyPII: 98.056 [ms]
[OGL LOG][Proc: 0]: global_index_init: 0.092 [ms]
[OGL LOG][Proc: 0]p_local_coeffs: call_update: 0 [ms]
[OGL LOG][Proc: 0]p_non_local_coeffs: call_update: 0 [ms]
[OGL LOG][Proc: 0]p: update_local_matrix_data: 38.637 [ms]
[OGL LOG][Proc: 0]p: update_non_local_matrix_data: 0.238 [ms]
[OGL LOG][Proc: 0]p_matrix: call_update: 30.948 [ms]
[OGL LOG][Proc: 0]p_rhs: call_update: 2.003 [ms]
[OGL LOG][Preconditioner.H:121] Generate preconditioner BJ MaxBlockSize 1
[OGL LOG][Proc: 0]p: init_precond: 1.105 [ms]
[OGL LOG][StoppingCriterion.H:373] Creating stopping criterion with minIter 1296 frequency 13
[OGL LOG][Proc: 0]p: generate_solver: 0.004 [ms]
[OGL LOG][Proc: 0]p: solve: 3886.29 [ms]
[OGL LOG][Proc: 0]p: copy_x_back: 9.187 [ms]
[OGL LOG][lduLduBase.H:330] 
Statistics:
	Time per iteration: 1800 [mu s]
	Time per residual norm calculation: 350.000000 [mu s]
	Time per iteration and DOF: 0.066667 [ns]
	Retrieve results bandwidth 2.938000 [GByte/s]
[OGL LOG][Proc: 0]p: solve_multi_gpu: 3931.27 [ms]
BJhipGKOCG:  Solving for p, Initial residual = 0.87272, Final residual = 8.84067e-05, No Iterations 2159
[INFO] SolveP: 3982.37 [ms]
time step continuity errors : sum local = 9.62568e-09, global = 1.69815e-21, cumulative = 6.47894e-21
[INFO] ContinuityError: 52.824 [ms]
[INFO] CorrectBoundary: 2.276 [ms]
[INFO] PISOStep: 4608.78 [ms]
[INFO] TimeStep: 12556.1 [ms]
ExecutionTime = 72.83 s  ClockTime = 62 s

Time = 0.000996

Courant Number mean: 0.0301892 max: 0.478379
[INFO] MatrixAssemblyU: 263.261 [ms]
DILUPBiCGStab:  Solving for Ux, Initial residual = 0.0270175, Final residual = 0.00213064, No Iterations 5
DILUPBiCGStab:  Solving for Uy, Initial residual = 0.111895, Final residual = 0.00833831, No Iterations 5
DILUPBiCGStab:  Solving for Uz, Initial residual = 0.582979, Final residual = 0.0261148, No Iterations 5
[INFO] MomentumPredictor: 2984.97 [ms]
[INFO] MatrixAssemblyPI: 342.427 [ms]
[INFO] AdjustPhi: 21.506 [ms]
[INFO] ConstrainPressure: 0.004 [ms]
[INFO] MatrixAssemblyPII: 98.842 [ms]
[OGL LOG][Proc: 0]: global_index_init: 0.122 [ms]
[OGL LOG][Proc: 0]p_local_coeffs: call_update: 0 [ms]
[OGL LOG][Proc: 0]p_non_local_coeffs: call_update: 0 [ms]
[OGL LOG][Proc: 0]p: update_local_matrix_data: 39.189 [ms]
[OGL LOG][Proc: 0]p: update_non_local_matrix_data: 0.282 [ms]
[OGL LOG][Proc: 0]p_matrix: call_update: 39.309 [ms]
[OGL LOG][Proc: 0]p_rhs: call_update: 17.039 [ms]
[OGL LOG][Preconditioner.H:121] Generate preconditioner BJ MaxBlockSize 1
[OGL LOG][Proc: 0]p: init_precond: 1.124 [ms]
[OGL LOG][StoppingCriterion.H:373] Creating stopping criterion with minIter 1295 frequency 13
[OGL LOG][Proc: 0]p: generate_solver: 0.003 [ms]
[OGL LOG][Proc: 0]p: solve: 4252.82 [ms]
[OGL LOG][Proc: 0]p: copy_x_back: 9.46 [ms]
[OGL LOG][lduLduBase.H:330] 
Statistics:
	Time per iteration: 1796 [mu s]
	Time per residual norm calculation: 349.000000 [mu s]
	Time per iteration and DOF: 0.066519 [ns]
	Retrieve results bandwidth 2.854000 [GByte/s]
[OGL LOG][Proc: 0]p: solve_multi_gpu: 4321.67 [ms]
BJhipGKOCG:  Solving for p, Initial residual = 0.887862, Final residual = 9.0794e-05, No Iterations 2367
[INFO] SolveP: 4372.16 [ms]
time step continuity errors : sum local = 1.02161e-08, global = 4.12301e-23, cumulative = 6.52017e-21
[INFO] ContinuityError: 50.194 [ms]
[INFO] CorrectBoundary: 1.347 [ms]
[INFO] PISOStep: 4998.08 [ms]
[INFO] MatrixAssemblyPI: 337.617 [ms]
[INFO] AdjustPhi: 19.089 [ms]
[INFO] ConstrainPressure: 0.004 [ms]
[INFO] MatrixAssemblyPII: 98.229 [ms]
[OGL LOG][Proc: 0]: global_index_init: 0.125 [ms]
[OGL LOG][Proc: 0]p_local_coeffs: call_update: 0 [ms]
[OGL LOG][Proc: 0]p_non_local_coeffs: call_update: 0 [ms]
[OGL LOG][Proc: 0]p: update_local_matrix_data: 38.473 [ms]
[OGL LOG][Proc: 0]p: update_non_local_matrix_data: 0.238 [ms]
[OGL LOG][Proc: 0]p_matrix: call_update: 24.651 [ms]
[OGL LOG][Proc: 0]p_rhs: call_update: 7.915 [ms]
[OGL LOG][Preconditioner.H:121] Generate preconditioner BJ MaxBlockSize 1
[OGL LOG][Proc: 0]p: init_precond: 1.115 [ms]
[OGL LOG][StoppingCriterion.H:373] Creating stopping criterion with minIter 1420 frequency 13
[OGL LOG][Proc: 0]p: generate_solver: 0.003 [ms]
[OGL LOG][Proc: 0]p: solve: 4254.29 [ms]
[OGL LOG][Proc: 0]p: copy_x_back: 9.465 [ms]
[OGL LOG][lduLduBase.H:330] 
Statistics:
	Time per iteration: 1807 [mu s]
	Time per residual norm calculation: 358.000000 [mu s]
	Time per iteration and DOF: 0.066926 [ns]
	Retrieve results bandwidth 2.852000 [GByte/s]
[OGL LOG][Proc: 0]p: solve_multi_gpu: 4300.01 [ms]
BJhipGKOCG:  Solving for p, Initial residual = 0.824755, Final residual = 9.96074e-05, No Iterations 2354
[INFO] SolveP: 4349.4 [ms]
time step continuity errors : sum local = 1.13786e-08, global = 7.32298e-22, cumulative = 7.25246e-21
[INFO] ContinuityError: 49.333 [ms]
[INFO] CorrectBoundary: 4.664 [ms]
[INFO] PISOStep: 4971.04 [ms]
[INFO] TimeStep: 13262 [ms]
ExecutionTime = 89 s  ClockTime = 75 s

Time = 0.001162

Courant Number mean: 0.0326681 max: 0.51186
[INFO] MatrixAssemblyU: 262.354 [ms]
DILUPBiCGStab:  Solving for Ux, Initial residual = 0.0245555, Final residual = 0.00196945, No Iterations 5
DILUPBiCGStab:  Solving for Uy, Initial residual = 0.0982892, Final residual = 0.00769279, No Iterations 5
DILUPBiCGStab:  Solving for Uz, Initial residual = 0.553432, Final residual = 0.0228673, No Iterations 5
[INFO] MomentumPredictor: 2979.77 [ms]
[INFO] MatrixAssemblyPI: 343.542 [ms]
[INFO] AdjustPhi: 23.832 [ms]
[INFO] ConstrainPressure: 0.004 [ms]
[INFO] MatrixAssemblyPII: 98.164 [ms]
[OGL LOG][Proc: 0]: global_index_init: 0.381 [ms]
[OGL LOG][Proc: 0]p_local_coeffs: call_update: 0 [ms]
[OGL LOG][Proc: 0]p_non_local_coeffs: call_update: 0 [ms]
[OGL LOG][Proc: 0]p: update_local_matrix_data: 38.919 [ms]
[OGL LOG][Proc: 0]p: update_non_local_matrix_data: 0.247 [ms]
[OGL LOG][Proc: 0]p_matrix: call_update: 27.749 [ms]
[OGL LOG][Proc: 0]p_rhs: call_update: 14.877 [ms]
[OGL LOG][Preconditioner.H:121] Generate preconditioner BJ MaxBlockSize 1
[OGL LOG][Proc: 0]p: init_precond: 1.11 [ms]
[OGL LOG][StoppingCriterion.H:373] Creating stopping criterion with minIter 1412 frequency 13
[OGL LOG][Proc: 0]p: generate_solver: 0.005 [ms]
[OGL LOG][Proc: 0]p: solve: 4162.86 [ms]
[OGL LOG][Proc: 0]p: copy_x_back: 9.723 [ms]
[OGL LOG][lduLduBase.H:330] 
Statistics:
	Time per iteration: 1808 [mu s]
	Time per residual norm calculation: 310.000000 [mu s]
	Time per iteration and DOF: 0.066963 [ns]
	Retrieve results bandwidth 2.776000 [GByte/s]
[OGL LOG][Proc: 0]p: solve_multi_gpu: 4218.4 [ms]
BJhipGKOCG:  Solving for p, Initial residual = 0.9058, Final residual = 9.12657e-05, No Iterations 2302
[INFO] SolveP: 4268.53 [ms]
time step continuity errors : sum local = 1.00121e-08, global = 1.56801e-21, cumulative = 8.82047e-21
[INFO] ContinuityError: 50.294 [ms]
[INFO] CorrectBoundary: 1.072 [ms]
[INFO] PISOStep: 4897.66 [ms]
[INFO] MatrixAssemblyPI: 335.705 [ms]
[INFO] AdjustPhi: 20.718 [ms]
[INFO] ConstrainPressure: 0.004 [ms]
[INFO] MatrixAssemblyPII: 98.251 [ms]
[OGL LOG][Proc: 0]: global_index_init: 0.054 [ms]
[OGL LOG][Proc: 0]p_local_coeffs: call_update: 0 [ms]
[OGL LOG][Proc: 0]p_non_local_coeffs: call_update: 0 [ms]
[OGL LOG][Proc: 0]p: update_local_matrix_data: 38.52 [ms]
[OGL LOG][Proc: 0]p: update_non_local_matrix_data: 0.248 [ms]
[OGL LOG][Proc: 0]p_matrix: call_update: 26.438 [ms]
[OGL LOG][Proc: 0]p_rhs: call_update: 3.778 [ms]
[OGL LOG][Preconditioner.H:121] Generate preconditioner BJ MaxBlockSize 1
[OGL LOG][Proc: 0]p: init_precond: 1.142 [ms]
[OGL LOG][StoppingCriterion.H:373] Creating stopping criterion with minIter 1381 frequency 13
[OGL LOG][Proc: 0]p: generate_solver: 0.005 [ms]
[OGL LOG][Proc: 0]p: solve: 4102.48 [ms]
[OGL LOG][Proc: 0]p: copy_x_back: 9.396 [ms]
[OGL LOG][lduLduBase.H:330] 
Statistics:
	Time per iteration: 1792 [mu s]
	Time per residual norm calculation: 348.000000 [mu s]
	Time per iteration and DOF: 0.066370 [ns]
	Retrieve results bandwidth 2.873000 [GByte/s]
[OGL LOG][Proc: 0]p: solve_multi_gpu: 4145.05 [ms]
BJhipGKOCG:  Solving for p, Initial residual = 0.860966, Final residual = 9.83995e-05, No Iterations 2289
[INFO] SolveP: 4195.38 [ms]
time step continuity errors : sum local = 1.06765e-08, global = 6.05923e-22, cumulative = 9.4264e-21
[INFO] ContinuityError: 51.924 [ms]
[INFO] CorrectBoundary: 0.931 [ms]
[INFO] PISOStep: 4816.54 [ms]
[INFO] TimeStep: 13000.9 [ms]
ExecutionTime = 104.82 s  ClockTime = 88 s

Time = 0.001328

Courant Number mean: 0.034753 max: 0.481308
[INFO] MatrixAssemblyU: 263.09 [ms]
DILUPBiCGStab:  Solving for Ux, Initial residual = 0.0221231, Final residual = 0.00183358, No Iterations 5
DILUPBiCGStab:  Solving for Uy, Initial residual = 0.0870688, Final residual = 0.00645249, No Iterations 5
DILUPBiCGStab:  Solving for Uz, Initial residual = 0.509662, Final residual = 0.0204184, No Iterations 5
[INFO] MomentumPredictor: 2967.34 [ms]
[INFO] MatrixAssemblyPI: 346.118 [ms]
[INFO] AdjustPhi: 24.16 [ms]
[INFO] ConstrainPressure: 0.005 [ms]
[INFO] MatrixAssemblyPII: 98.152 [ms]
[OGL LOG][Proc: 0]: global_index_init: 0.249 [ms]
[OGL LOG][Proc: 0]p_local_coeffs: call_update: 0 [ms]
[OGL LOG][Proc: 0]p_non_local_coeffs: call_update: 0 [ms]
[OGL LOG][Proc: 0]p: update_local_matrix_data: 38.87 [ms]
[OGL LOG][Proc: 0]p: update_non_local_matrix_data: 0.26 [ms]
[OGL LOG][Proc: 0]p_matrix: call_update: 26.163 [ms]
[OGL LOG][Proc: 0]p_rhs: call_update: 4 [ms]
[OGL LOG][Preconditioner.H:121] Generate preconditioner BJ MaxBlockSize 1
[OGL LOG][Proc: 0]p: init_precond: 1.106 [ms]
[OGL LOG][StoppingCriterion.H:373] Creating stopping criterion with minIter 1373 frequency 13
[OGL LOG][Proc: 0]p: generate_solver: 0.004 [ms]
[OGL LOG][Proc: 0]p: solve: 4163.02 [ms]
[OGL LOG][Proc: 0]p: copy_x_back: 9.341 [ms]
[OGL LOG][lduLduBase.H:330] 
Statistics:
	Time per iteration: 1808 [mu s]
	Time per residual norm calculation: 347.000000 [mu s]
	Time per iteration and DOF: 0.066963 [ns]
	Retrieve results bandwidth 2.890000 [GByte/s]
[OGL LOG][Proc: 0]p: solve_multi_gpu: 4205.46 [ms]
BJhipGKOCG:  Solving for p, Initial residual = 0.883722, Final residual = 9.62796e-05, No Iterations 2302
[INFO] SolveP: 4261.99 [ms]
time step continuity errors : sum local = 1.0727e-08, global = 5.05162e-22, cumulative = 9.93156e-21
[INFO] ContinuityError: 46.773 [ms]
[INFO] CorrectBoundary: 0.938 [ms]
[INFO] PISOStep: 4893.64 [ms]
[INFO] MatrixAssemblyPI: 337.594 [ms]
[INFO] AdjustPhi: 23.748 [ms]
[INFO] ConstrainPressure: 0.005 [ms]
[INFO] MatrixAssemblyPII: 98.075 [ms]
[OGL LOG][Proc: 0]: global_index_init: 0.134 [ms]
[OGL LOG][Proc: 0]p_local_coeffs: call_update: 0 [ms]
[OGL LOG][Proc: 0]p_non_local_coeffs: call_update: 0 [ms]
[OGL LOG][Proc: 0]p: update_local_matrix_data: 39.038 [ms]
[OGL LOG][Proc: 0]p: update_non_local_matrix_data: 0.25 [ms]
[OGL LOG][Proc: 0]p_matrix: call_update: 28.754 [ms]
[OGL LOG][Proc: 0]p_rhs: call_update: 10.336 [ms]
[OGL LOG][Preconditioner.H:121] Generate preconditioner BJ MaxBlockSize 1
[OGL LOG][Proc: 0]p: init_precond: 1.065 [ms]
[OGL LOG][StoppingCriterion.H:373] Creating stopping criterion with minIter 1381 frequency 13
[OGL LOG][Proc: 0]p: generate_solver: 0.004 [ms]
[OGL LOG][Proc: 0]p: solve: 4145 [ms]
[OGL LOG][Proc: 0]p: copy_x_back: 9.334 [ms]
[OGL LOG][lduLduBase.H:330] 
Statistics:
	Time per iteration: 1800 [mu s]
	Time per residual norm calculation: 354.000000 [mu s]
	Time per iteration and DOF: 0.066667 [ns]
	Retrieve results bandwidth 2.892000 [GByte/s]
[OGL LOG][Proc: 0]p: solve_multi_gpu: 4196.84 [ms]
BJhipGKOCG:  Solving for p, Initial residual = 0.817874, Final residual = 8.91303e-05, No Iterations 2302
[INFO] SolveP: 4246.6 [ms]
time step continuity errors : sum local = 1.00675e-08, global = 8.65284e-22, cumulative = 1.07968e-20
[INFO] ContinuityError: 48.924 [ms]
[INFO] CorrectBoundary: 1.188 [ms]
[INFO] PISOStep: 4869.16 [ms]
[INFO] TimeStep: 13039.1 [ms]
ExecutionTime = 120.69 s  ClockTime = 101 s

Time = 0.001494

Courant Number mean: 0.036702 max: 0.517999
[INFO] MatrixAssemblyU: 262.614 [ms]
DILUPBiCGStab:  Solving for Ux, Initial residual = 0.020546, Final residual = 0.00171313, No Iterations 5
DILUPBiCGStab:  Solving for Uy, Initial residual = 0.0819318, Final residual = 0.0061119, No Iterations 5
DILUPBiCGStab:  Solving for Uz, Initial residual = 0.505826, Final residual = 0.0192039, No Iterations 5
[INFO] MomentumPredictor: 2958.91 [ms]
[INFO] MatrixAssemblyPI: 344.073 [ms]
[INFO] AdjustPhi: 20.698 [ms]
[INFO] ConstrainPressure: 0.004 [ms]
[INFO] MatrixAssemblyPII: 98.19 [ms]
[OGL LOG][Proc: 0]: global_index_init: 0.153 [ms]
[OGL LOG][Proc: 0]p_local_coeffs: call_update: 0 [ms]
[OGL LOG][Proc: 0]p_non_local_coeffs: call_update: 0 [ms]
[OGL LOG][Proc: 0]p: update_local_matrix_data: 38.95 [ms]
[OGL LOG][Proc: 0]p: update_non_local_matrix_data: 0.248 [ms]
[OGL LOG][Proc: 0]p_matrix: call_update: 25.937 [ms]
[OGL LOG][Proc: 0]p_rhs: call_update: 5.865 [ms]
[OGL LOG][Preconditioner.H:121] Generate preconditioner BJ MaxBlockSize 1
[OGL LOG][Proc: 0]p: init_precond: 1.084 [ms]
[OGL LOG][StoppingCriterion.H:373] Creating stopping criterion with minIter 1381 frequency 13
[OGL LOG][Proc: 0]p: generate_solver: 0.003 [ms]
[OGL LOG][Proc: 0]p: solve: 3753.91 [ms]
[OGL LOG][Proc: 0]p: copy_x_back: 9.379 [ms]
[OGL LOG][lduLduBase.H:330] 
Statistics:
	Time per iteration: 1803 [mu s]
	Time per residual norm calculation: 341.000000 [mu s]
	Time per iteration and DOF: 0.066778 [ns]
	Retrieve results bandwidth 2.878000 [GByte/s]
[OGL LOG][Proc: 0]p: solve_multi_gpu: 3797.79 [ms]
BJhipGKOCG:  Solving for p, Initial residual = 0.901642, Final residual = 8.87484e-05, No Iterations 2081
[INFO] SolveP: 3848.7 [ms]
time step continuity errors : sum local = 9.68546e-09, global = 1.07021e-21, cumulative = 1.18671e-20
[INFO] ContinuityError: 49.986 [ms]
[INFO] CorrectBoundary: 1.423 [ms]
[INFO] PISOStep: 4478.24 [ms]
[INFO] MatrixAssemblyPI: 336.491 [ms]
[INFO] AdjustPhi: 20.585 [ms]
[INFO] ConstrainPressure: 0.004 [ms]
[INFO] MatrixAssemblyPII: 98.565 [ms]
[OGL LOG][Proc: 0]: global_index_init: 0.102 [ms]
[OGL LOG][Proc: 0]p_local_coeffs: call_update: 0 [ms]
[OGL LOG][Proc: 0]p_non_local_coeffs: call_update: 0 [ms]
[OGL LOG][Proc: 0]p: update_local_matrix_data: 38.472 [ms]
[OGL LOG][Proc: 0]p: update_non_local_matrix_data: 0.236 [ms]
[OGL LOG][Proc: 0]p_matrix: call_update: 36.006 [ms]
[OGL LOG][Proc: 0]p_rhs: call_update: 12.949 [ms]
[OGL LOG][Preconditioner.H:121] Generate preconditioner BJ MaxBlockSize 1
[OGL LOG][Proc: 0]p: init_precond: 1.074 [ms]
[OGL LOG][StoppingCriterion.H:373] Creating stopping criterion with minIter 1248 frequency 12
[OGL LOG][Proc: 0]p: generate_solver: 0.003 [ms]
[OGL LOG][Proc: 0]p: solve: 3745.74 [ms]
[OGL LOG][Proc: 0]p: copy_x_back: 9.587 [ms]
[OGL LOG][lduLduBase.H:330] 
Statistics:
	Time per iteration: 1803 [mu s]
	Time per residual norm calculation: 307.000000 [mu s]
	Time per iteration and DOF: 0.066778 [ns]
	Retrieve results bandwidth 2.816000 [GByte/s]
[OGL LOG][Proc: 0]p: solve_multi_gpu: 3808.1 [ms]
BJhipGKOCG:  Solving for p, Initial residual = 0.851756, Final residual = 8.62954e-05, No Iterations 2077
[INFO] SolveP: 3859.26 [ms]
time step continuity errors : sum local = 9.32539e-09, global = -1.67122e-22, cumulative = 1.16999e-20
[INFO] ContinuityError: 49.283 [ms]
[INFO] CorrectBoundary: 2.528 [ms]
[INFO] PISOStep: 4479.23 [ms]
[INFO] TimeStep: 12224 [ms]
ExecutionTime = 135.46 s  ClockTime = 113 s

Time = 0.00166

Courant Number mean: 0.0383957 max: 0.483672
[INFO] MatrixAssemblyU: 263.721 [ms]
DILUPBiCGStab:  Solving for Ux, Initial residual = 0.0193497, Final residual = 0.00162873, No Iterations 5
DILUPBiCGStab:  Solving for Uy, Initial residual = 0.0736065, Final residual = 0.00529558, No Iterations 5
DILUPBiCGStab:  Solving for Uz, Initial residual = 0.48121, Final residual = 0.0176576, No Iterations 5
[INFO] MomentumPredictor: 2983.81 [ms]
[INFO] MatrixAssemblyPI: 343.85 [ms]
[INFO] AdjustPhi: 22.337 [ms]
[INFO] ConstrainPressure: 0.004 [ms]
[INFO] MatrixAssemblyPII: 98.306 [ms]
[OGL LOG][Proc: 0]: global_index_init: 0.297 [ms]
[OGL LOG][Proc: 0]p_local_coeffs: call_update: 0 [ms]
[OGL LOG][Proc: 0]p_non_local_coeffs: call_update: 0 [ms]
[OGL LOG][Proc: 0]p: update_local_matrix_data: 38.876 [ms]
[OGL LOG][Proc: 0]p: update_non_local_matrix_data: 0.218 [ms]
[OGL LOG][Proc: 0]p_matrix: call_update: 29.05 [ms]
[OGL LOG][Proc: 0]p_rhs: call_update: 2.233 [ms]
[OGL LOG][Preconditioner.H:121] Generate preconditioner BJ MaxBlockSize 1
[OGL LOG][Proc: 0]p: init_precond: 1.11 [ms]
[OGL LOG][StoppingCriterion.H:373] Creating stopping criterion with minIter 1246 frequency 12
[OGL LOG][Proc: 0]p: generate_solver: 0.003 [ms]
[OGL LOG][Proc: 0]p: solve: 4153.46 [ms]
[OGL LOG][Proc: 0]p: copy_x_back: 9.524 [ms]
[OGL LOG][lduLduBase.H:330] 
Statistics:
	Time per iteration: 1811 [mu s]
	Time per residual norm calculation: 351.000000 [mu s]
	Time per iteration and DOF: 0.067074 [ns]
	Retrieve results bandwidth 2.834000 [GByte/s]
[OGL LOG][Proc: 0]p: solve_multi_gpu: 4197.52 [ms]
BJhipGKOCG:  Solving for p, Initial residual = 0.882643, Final residual = 9.1537e-05, No Iterations 2293
[INFO] SolveP: 4247.9 [ms]
time step continuity errors : sum local = 1.03105e-08, global = 1.7387e-21, cumulative = 1.34386e-20
[INFO] ContinuityError: 48.697 [ms]
[INFO] CorrectBoundary: 0.918 [ms]
[INFO] PISOStep: 4874.38 [ms]
[INFO] MatrixAssemblyPI: 335.378 [ms]
[INFO] AdjustPhi: 18.879 [ms]
[INFO] ConstrainPressure: 0.005 [ms]
[INFO] MatrixAssemblyPII: 98.412 [ms]
[OGL LOG][Proc: 0]: global_index_init: 0.061 [ms]
[OGL LOG][Proc: 0]p_local_coeffs: call_update: 0 [ms]
[OGL LOG][Proc: 0]p_non_local_coeffs: call_update: 0 [ms]
[OGL LOG][Proc: 0]p: update_local_matrix_data: 38.487 [ms]
[OGL LOG][Proc: 0]p: update_non_local_matrix_data: 0.242 [ms]
[OGL LOG][Proc: 0]p_matrix: call_update: 22.883 [ms]
[OGL LOG][Proc: 0]p_rhs: call_update: 8.235 [ms]
[OGL LOG][Preconditioner.H:121] Generate preconditioner BJ MaxBlockSize 1
[OGL LOG][Proc: 0]p: init_precond: 1.071 [ms]
[OGL LOG][StoppingCriterion.H:373] Creating stopping criterion with minIter 1375 frequency 13
[OGL LOG][Proc: 0]p: generate_solver: 0.004 [ms]
[OGL LOG][Proc: 0]p: solve: 4125.51 [ms]
[OGL LOG][Proc: 0]p: copy_x_back: 9.176 [ms]
[OGL LOG][lduLduBase.H:330] 
Statistics:
	Time per iteration: 1802 [mu s]
	Time per residual norm calculation: 312.000000 [mu s]
	Time per iteration and DOF: 0.066741 [ns]
	Retrieve results bandwidth 2.942000 [GByte/s]
[OGL LOG][Proc: 0]p: solve_multi_gpu: 4169.08 [ms]
BJhipGKOCG:  Solving for p, Initial residual = 0.813515, Final residual = 9.11836e-05, No Iterations 2289
[INFO] SolveP: 4219.85 [ms]
time step continuity errors : sum local = 1.03996e-08, global = 1.35151e-21, cumulative = 1.47901e-20
[INFO] ContinuityError: 50.956 [ms]
[INFO] CorrectBoundary: 0.959 [ms]
[INFO] PISOStep: 4838.51 [ms]
[INFO] TimeStep: 13004.6 [ms]
ExecutionTime = 151.28 s  ClockTime = 126 s

Time = 0.001826

Courant Number mean: 0.0400177 max: 0.524621
[INFO] MatrixAssemblyU: 263.272 [ms]
DILUPBiCGStab:  Solving for Ux, Initial residual = 0.0181641, Final residual = 0.00152081, No Iterations 5
DILUPBiCGStab:  Solving for Uy, Initial residual = 0.0719803, Final residual = 0.00511566, No Iterations 5
DILUPBiCGStab:  Solving for Uz, Initial residual = 0.485046, Final residual = 0.0171597, No Iterations 5
[INFO] MomentumPredictor: 2970.25 [ms]
[INFO] MatrixAssemblyPI: 343.537 [ms]
[INFO] AdjustPhi: 21.424 [ms]
[INFO] ConstrainPressure: 0.005 [ms]
[INFO] MatrixAssemblyPII: 98.186 [ms]
[OGL LOG][Proc: 0]: global_index_init: 0.214 [ms]
[OGL LOG][Proc: 0]p_local_coeffs: call_update: 0 [ms]
[OGL LOG][Proc: 0]p_non_local_coeffs: call_update: 0 [ms]
[OGL LOG][Proc: 0]p: update_local_matrix_data: 38.873 [ms]
[OGL LOG][Proc: 0]p: update_non_local_matrix_data: 0.251 [ms]
[OGL LOG][Proc: 0]p_matrix: call_update: 32.05 [ms]
[OGL LOG][Proc: 0]p_rhs: call_update: 7.499 [ms]
[OGL LOG][Preconditioner.H:121] Generate preconditioner BJ MaxBlockSize 1
[OGL LOG][Proc: 0]p: init_precond: 1.088 [ms]
[OGL LOG][StoppingCriterion.H:373] Creating stopping criterion with minIter 1373 frequency 13
[OGL LOG][Proc: 0]p: generate_solver: 0.003 [ms]
[OGL LOG][Proc: 0]p: solve: 3976.77 [ms]
[OGL LOG][Proc: 0]p: copy_x_back: 9.51 [ms]
[OGL LOG][lduLduBase.H:330] 
Statistics:
	Time per iteration: 1798 [mu s]
	Time per residual norm calculation: 323.000000 [mu s]
	Time per iteration and DOF: 0.066593 [ns]
	Retrieve results bandwidth 2.839000 [GByte/s]
[OGL LOG][Proc: 0]p: solve_multi_gpu: 4029.04 [ms]
BJhipGKOCG:  Solving for p, Initial residual = 0.901632, Final residual = 9.58618e-05, No Iterations 2211
[INFO] SolveP: 4079.95 [ms]
time step continuity errors : sum local = 1.07367e-08, global = 8.67657e-22, cumulative = 1.56578e-20
[INFO] ContinuityError: 50.504 [ms]
[INFO] CorrectBoundary: 1.271 [ms]
[INFO] PISOStep: 4707.16 [ms]
[INFO] MatrixAssemblyPI: 337.561 [ms]
[INFO] AdjustPhi: 22.423 [ms]
[INFO] ConstrainPressure: 0.005 [ms]
[INFO] MatrixAssemblyPII: 98.354 [ms]
[OGL LOG][Proc: 0]: global_index_init: 0.081 [ms]
[OGL LOG][Proc: 0]p_local_coeffs: call_update: 0 [ms]
[OGL LOG][Proc: 0]p_non_local_coeffs: call_update: 0 [ms]
[OGL LOG][Proc: 0]p: update_local_matrix_data: 39.076 [ms]
[OGL LOG][Proc: 0]p: update_non_local_matrix_data: 0.255 [ms]
[OGL LOG][Proc: 0]p_matrix: call_update: 22.914 [ms]
[OGL LOG][Proc: 0]p_rhs: call_update: 8.606 [ms]
[OGL LOG][Preconditioner.H:121] Generate preconditioner BJ MaxBlockSize 1
[OGL LOG][Proc: 0]p: init_precond: 1.128 [ms]
[OGL LOG][StoppingCriterion.H:373] Creating stopping criterion with minIter 1326 frequency 13
[OGL LOG][Proc: 0]p: generate_solver: 0.003 [ms]
[OGL LOG][Proc: 0]p: solve: 3981.97 [ms]
[OGL LOG][Proc: 0]p: copy_x_back: 9.392 [ms]
[OGL LOG][lduLduBase.H:330] 
Statistics:
	Time per iteration: 1790 [mu s]
	Time per residual norm calculation: 349.000000 [mu s]
	Time per iteration and DOF: 0.066296 [ns]
	Retrieve results bandwidth 2.874000 [GByte/s]
[OGL LOG][Proc: 0]p: solve_multi_gpu: 4026.08 [ms]
BJhipGKOCG:  Solving for p, Initial residual = 0.847151, Final residual = 9.91493e-05, No Iterations 2224
[INFO] SolveP: 4077.2 [ms]
time step continuity errors : sum local = 1.10116e-08, global = 1.11813e-21, cumulative = 1.67759e-20
[INFO] ContinuityError: 51.915 [ms]
[INFO] CorrectBoundary: 1.025 [ms]
[INFO] PISOStep: 4702.15 [ms]
[INFO] TimeStep: 12687.5 [ms]
ExecutionTime = 166.7 s  ClockTime = 139 s

Time = 0.001992

Courant Number mean: 0.041449 max: 0.486752
[INFO] MatrixAssemblyU: 262.939 [ms]
DILUPBiCGStab:  Solving for Ux, Initial residual = 0.0175765, Final residual = 0.00146994, No Iterations 5
DILUPBiCGStab:  Solving for Uy, Initial residual = 0.0655098, Final residual = 0.00449808, No Iterations 5
DILUPBiCGStab:  Solving for Uz, Initial residual = 0.471705, Final residual = 0.0167791, No Iterations 5
[INFO] MomentumPredictor: 2964.15 [ms]
[INFO] MatrixAssemblyPI: 342.533 [ms]
[INFO] AdjustPhi: 24.586 [ms]
[INFO] ConstrainPressure: 0.005 [ms]
[INFO] MatrixAssemblyPII: 98.032 [ms]
[OGL LOG][Proc: 0]: global_index_init: 0.213 [ms]
[OGL LOG][Proc: 0]p_local_coeffs: call_update: 0 [ms]
[OGL LOG][Proc: 0]p_non_local_coeffs: call_update: 0 [ms]
[OGL LOG][Proc: 0]p: update_local_matrix_data: 38.877 [ms]
[OGL LOG][Proc: 0]p: update_non_local_matrix_data: 0.261 [ms]
[OGL LOG][Proc: 0]p_matrix: call_update: 41.556 [ms]
[OGL LOG][Proc: 0]p_rhs: call_update: 9.106 [ms]
[OGL LOG][Preconditioner.H:121] Generate preconditioner BJ MaxBlockSize 1
[OGL LOG][Proc: 0]p: init_precond: 1.072 [ms]
[OGL LOG][StoppingCriterion.H:373] Creating stopping criterion with minIter 1334 frequency 13
[OGL LOG][Proc: 0]p: generate_solver: 0.003 [ms]
[OGL LOG][Proc: 0]p: solve: 4133.82 [ms]
[OGL LOG][Proc: 0]p: copy_x_back: 9.472 [ms]
[OGL LOG][lduLduBase.H:330] 
Statistics:
	Time per iteration: 1805 [mu s]
	Time per residual norm calculation: 347.000000 [mu s]
	Time per iteration and DOF: 0.066852 [ns]
	Retrieve results bandwidth 2.850000 [GByte/s]
[OGL LOG][Proc: 0]p: solve_multi_gpu: 4197.22 [ms]
BJhipGKOCG:  Solving for p, Initial residual = 0.884124, Final residual = 9.23536e-05, No Iterations 2289
[INFO] SolveP: 4248.51 [ms]
time step continuity errors : sum local = 1.07504e-08, global = 9.40784e-22, cumulative = 1.77167e-20
[INFO] ContinuityError: 49.153 [ms]
[INFO] CorrectBoundary: 0.911 [ms]
[INFO] PISOStep: 4876.68 [ms]
[INFO] MatrixAssemblyPI: 337.212 [ms]
[INFO] AdjustPhi: 22.509 [ms]
[INFO] ConstrainPressure: 0.005 [ms]
[INFO] MatrixAssemblyPII: 97.986 [ms]
[OGL LOG][Proc: 0]: global_index_init: 0.141 [ms]
[OGL LOG][Proc: 0]p_local_coeffs: call_update: 0 [ms]
[OGL LOG][Proc: 0]p_non_local_coeffs: call_update: 0 [ms]
[OGL LOG][Proc: 0]p: update_local_matrix_data: 38.512 [ms]
[OGL LOG][Proc: 0]p: update_non_local_matrix_data: 0.249 [ms]
[OGL LOG][Proc: 0]p_matrix: call_update: 21.763 [ms]
[OGL LOG][Proc: 0]p_rhs: call_update: 8.911 [ms]
[OGL LOG][Preconditioner.H:121] Generate preconditioner BJ MaxBlockSize 1
[OGL LOG][Proc: 0]p: init_precond: 1.065 [ms]
[OGL LOG][StoppingCriterion.H:373] Creating stopping criterion with minIter 1373 frequency 13
[OGL LOG][Proc: 0]p: generate_solver: 0.003 [ms]
[OGL LOG][Proc: 0]p: solve: 4123.06 [ms]
[OGL LOG][Proc: 0]p: copy_x_back: 9.553 [ms]
[OGL LOG][lduLduBase.H:330] 
Statistics:
	Time per iteration: 1801 [mu s]
	Time per residual norm calculation: 310.000000 [mu s]
	Time per iteration and DOF: 0.066704 [ns]
	Retrieve results bandwidth 2.826000 [GByte/s]
[OGL LOG][Proc: 0]p: solve_multi_gpu: 4166.58 [ms]
BJhipGKOCG:  Solving for p, Initial residual = 0.813583, Final residual = 8.39624e-05, No Iterations 2289
[INFO] SolveP: 4217.06 [ms]
time step continuity errors : sum local = 9.88273e-09, global = -3.32441e-22, cumulative = 1.73843e-20
[INFO] ContinuityError: 48.6 [ms]
[INFO] CorrectBoundary: 1.233 [ms]
[INFO] PISOStep: 4836.86 [ms]
[INFO] TimeStep: 12985.7 [ms]
ExecutionTime = 182.51 s  ClockTime = 152 s

Time = 0.002158

Courant Number mean: 0.0428474 max: 0.532247
[INFO] MatrixAssemblyU: 263.157 [ms]
DILUPBiCGStab:  Solving for Ux, Initial residual = 0.0166374, Final residual = 0.00136886, No Iterations 5
DILUPBiCGStab:  Solving for Uy, Initial residual = 0.0655573, Final residual = 0.00442747, No Iterations 5
DILUPBiCGStab:  Solving for Uz, Initial residual = 0.479203, Final residual = 0.0162882, No Iterations 5
[INFO] MomentumPredictor: 2967.27 [ms]
[INFO] MatrixAssemblyPI: 342.543 [ms]
[INFO] AdjustPhi: 21.669 [ms]
[INFO] ConstrainPressure: 0.005 [ms]
[INFO] MatrixAssemblyPII: 98.435 [ms]
[OGL LOG][Proc: 0]: global_index_init: 0.2 [ms]
[OGL LOG][Proc: 0]p_local_coeffs: call_update: 0 [ms]
[OGL LOG][Proc: 0]p_non_local_coeffs: call_update: 0 [ms]
[OGL LOG][Proc: 0]p: update_local_matrix_data: 38.897 [ms]
[OGL LOG][Proc: 0]p: update_non_local_matrix_data: 0.254 [ms]
[OGL LOG][Proc: 0]p_matrix: call_update: 25.908 [ms]
[OGL LOG][Proc: 0]p_rhs: call_update: 7.666 [ms]
[OGL LOG][Preconditioner.H:121] Generate preconditioner BJ MaxBlockSize 1
[OGL LOG][Proc: 0]p: init_precond: 1.153 [ms]
[OGL LOG][StoppingCriterion.H:373] Creating stopping criterion with minIter 1373 frequency 13
[OGL LOG][Proc: 0]p: generate_solver: 0.004 [ms]
[OGL LOG][Proc: 0]p: solve: 4124.35 [ms]
[OGL LOG][Proc: 0]p: copy_x_back: 9.337 [ms]
[OGL LOG][lduLduBase.H:330] 
Statistics:
	Time per iteration: 1801 [mu s]
	Time per residual norm calculation: 342.000000 [mu s]
	Time per iteration and DOF: 0.066704 [ns]
	Retrieve results bandwidth 2.891000 [GByte/s]
[OGL LOG][Proc: 0]p: solve_multi_gpu: 4170.37 [ms]
BJhipGKOCG:  Solving for p, Initial residual = 0.902366, Final residual = 8.46387e-05, No Iterations 2289
[INFO] SolveP: 4224.01 [ms]
time step continuity errors : sum local = 9.85375e-09, global = 1.17384e-21, cumulative = 1.85581e-20
[INFO] ContinuityError: 52.574 [ms]
[INFO] CorrectBoundary: 1.049 [ms]
[INFO] PISOStep: 4851.5 [ms]
[INFO] MatrixAssemblyPI: 336.724 [ms]
[INFO] AdjustPhi: 21.364 [ms]
[INFO] ConstrainPressure: 0.005 [ms]
[INFO] MatrixAssemblyPII: 97.98 [ms]
[OGL LOG][Proc: 0]: global_index_init: 0.198 [ms]
[OGL LOG][Proc: 0]p_local_coeffs: call_update: 0 [ms]
[OGL LOG][Proc: 0]p_non_local_coeffs: call_update: 0 [ms]
[OGL LOG][Proc: 0]p: update_local_matrix_data: 38.548 [ms]
[OGL LOG][Proc: 0]p: update_non_local_matrix_data: 0.239 [ms]
[OGL LOG][Proc: 0]p_matrix: call_update: 32.111 [ms]
[OGL LOG][Proc: 0]p_rhs: call_update: 4.516 [ms]
[OGL LOG][Preconditioner.H:121] Generate preconditioner BJ MaxBlockSize 1
[OGL LOG][Proc: 0]p: init_precond: 1.149 [ms]
[OGL LOG][StoppingCriterion.H:373] Creating stopping criterion with minIter 1373 frequency 13
[OGL LOG][Proc: 0]p: generate_solver: 0.004 [ms]
[OGL LOG][Proc: 0]p: solve: 4102.46 [ms]
[OGL LOG][Proc: 0]p: copy_x_back: 9.566 [ms]
[OGL LOG][lduLduBase.H:330] 
Statistics:
	Time per iteration: 1792 [mu s]
	Time per residual norm calculation: 346.000000 [mu s]
	Time per iteration and DOF: 0.066370 [ns]
	Retrieve results bandwidth 2.822000 [GByte/s]
[OGL LOG][Proc: 0]p: solve_multi_gpu: 4151.59 [ms]
BJhipGKOCG:  Solving for p, Initial residual = 0.844266, Final residual = 7.84384e-05, No Iterations 2289
[INFO] SolveP: 4200.85 [ms]
time step continuity errors : sum local = 9.06799e-09, global = -7.13104e-22, cumulative = 1.7845e-20
[INFO] ContinuityError: 53.065 [ms]
[INFO] CorrectBoundary: 1.409 [ms]
[INFO] PISOStep: 4826.24 [ms]
[INFO] TimeStep: 12953.4 [ms]
ExecutionTime = 198.27 s  ClockTime = 165 s

Time = 0.002324

Courant Number mean: 0.0440891 max: 0.489795
[INFO] MatrixAssemblyU: 262.737 [ms]
DILUPBiCGStab:  Solving for Ux, Initial residual = 0.0164082, Final residual = 0.0013447, No Iterations 5
DILUPBiCGStab:  Solving for Uy, Initial residual = 0.060424, Final residual = 0.00392981, No Iterations 5
DILUPBiCGStab:  Solving for Uz, Initial residual = 0.46969, Final residual = 0.0158361, No Iterations 5
[INFO] MomentumPredictor: 2965.57 [ms]
[INFO] MatrixAssemblyPI: 342.39 [ms]
[INFO] AdjustPhi: 21.109 [ms]
[INFO] ConstrainPressure: 0.005 [ms]
[INFO] MatrixAssemblyPII: 97.937 [ms]
[OGL LOG][Proc: 0]: global_index_init: 0.083 [ms]
[OGL LOG][Proc: 0]p_local_coeffs: call_update: 0 [ms]
[OGL LOG][Proc: 0]p_non_local_coeffs: call_update: 0 [ms]
[OGL LOG][Proc: 0]p: update_local_matrix_data: 39.48 [ms]
[OGL LOG][Proc: 0]p: update_non_local_matrix_data: 0.249 [ms]
[OGL LOG][Proc: 0]p_matrix: call_update: 24.056 [ms]
[OGL LOG][Proc: 0]p_rhs: call_update: 6.436 [ms]
[OGL LOG][Preconditioner.H:121] Generate preconditioner BJ MaxBlockSize 1
[OGL LOG][Proc: 0]p: init_precond: 1.114 [ms]
[OGL LOG][StoppingCriterion.H:373] Creating stopping criterion with minIter 1373 frequency 13
[OGL LOG][Proc: 0]p: generate_solver: 0.004 [ms]
[OGL LOG][Proc: 0]p: solve: 4093.56 [ms]
[OGL LOG][Proc: 0]p: copy_x_back: 9.36 [ms]
[OGL LOG][lduLduBase.H:330] 
Statistics:
	Time per iteration: 1788 [mu s]
	Time per residual norm calculation: 308.000000 [mu s]
	Time per iteration and DOF: 0.066222 [ns]
	Retrieve results bandwidth 2.884000 [GByte/s]
[OGL LOG][Proc: 0]p: solve_multi_gpu: 4136.71 [ms]
BJhipGKOCG:  Solving for p, Initial residual = 0.886483, Final residual = 9.00816e-05, No Iterations 2289
[INFO] SolveP: 4186.81 [ms]
time step continuity errors : sum local = 1.09171e-08, global = 1.08077e-21, cumulative = 1.89258e-20
[INFO] ContinuityError: 48.973 [ms]
[INFO] CorrectBoundary: 1.64 [ms]
[INFO] PISOStep: 4810.43 [ms]
[INFO] MatrixAssemblyPI: 335.556 [ms]
[INFO] AdjustPhi: 24.075 [ms]
[INFO] ConstrainPressure: 0.005 [ms]
[INFO] MatrixAssemblyPII: 98.012 [ms]
[OGL LOG][Proc: 0]: global_index_init: 0.118 [ms]
[OGL LOG][Proc: 0]p_local_coeffs: call_update: 0 [ms]
[OGL LOG][Proc: 0]p_non_local_coeffs: call_update: 0 [ms]
[OGL LOG][Proc: 0]p: update_local_matrix_data: 38.511 [ms]
[OGL LOG][Proc: 0]p: update_non_local_matrix_data: 0.245 [ms]
[OGL LOG][Proc: 0]p_matrix: call_update: 50.955 [ms]
[OGL LOG][Proc: 0]p_rhs: call_update: 2.228 [ms]
[OGL LOG][Preconditioner.H:121] Generate preconditioner BJ MaxBlockSize 1
[OGL LOG][Proc: 0]p: init_precond: 1.141 [ms]
[OGL LOG][StoppingCriterion.H:373] Creating stopping criterion with minIter 1373 frequency 13
[OGL LOG][Proc: 0]p: generate_solver: 0.003 [ms]
[OGL LOG][Proc: 0]p: solve: 4142.38 [ms]
[OGL LOG][Proc: 0]p: copy_x_back: 9.539 [ms]
[OGL LOG][lduLduBase.H:330] 
Statistics:
	Time per iteration: 1809 [mu s]
	Time per residual norm calculation: 323.000000 [mu s]
	Time per iteration and DOF: 0.067000 [ns]
	Retrieve results bandwidth 2.830000 [GByte/s]
[OGL LOG][Proc: 0]p: solve_multi_gpu: 4208.46 [ms]
BJhipGKOCG:  Solving for p, Initial residual = 0.814772, Final residual = 8.27664e-05, No Iterations 2289
[INFO] SolveP: 4259.79 [ms]
time step continuity errors : sum local = 1.01285e-08, global = 6.47722e-22, cumulative = 1.95735e-20
[INFO] ContinuityError: 49.443 [ms]
[INFO] CorrectBoundary: 2.396 [ms]
[INFO] PISOStep: 4880.75 [ms]
[INFO] TimeStep: 12964.9 [ms]
ExecutionTime = 214.02 s  ClockTime = 178 s

Time = 0.00249

Courant Number mean: 0.0453247 max: 0.540991
[INFO] MatrixAssemblyU: 260.704 [ms]
DILUPBiCGStab:  Solving for Ux, Initial residual = 0.0156549, Final residual = 0.0012466, No Iterations 5
DILUPBiCGStab:  Solving for Uy, Initial residual = 0.0613081, Final residual = 0.00392734, No Iterations 5
DILUPBiCGStab:  Solving for Uz, Initial residual = 0.479878, Final residual = 0.0157071, No Iterations 5
[INFO] MomentumPredictor: 2978.56 [ms]
[INFO] MatrixAssemblyPI: 343.79 [ms]
[INFO] AdjustPhi: 21.551 [ms]
[INFO] ConstrainPressure: 0.005 [ms]
[INFO] MatrixAssemblyPII: 98.353 [ms]
[OGL LOG][Proc: 0]: global_index_init: 0.199 [ms]
[OGL LOG][Proc: 0]p_local_coeffs: call_update: 0 [ms]
[OGL LOG][Proc: 0]p_non_local_coeffs: call_update: 0 [ms]
[OGL LOG][Proc: 0]p: update_local_matrix_data: 38.845 [ms]
[OGL LOG][Proc: 0]p: update_non_local_matrix_data: 0.241 [ms]
[OGL LOG][Proc: 0]p_matrix: call_update: 25.045 [ms]
[OGL LOG][Proc: 0]p_rhs: call_update: 6.258 [ms]
[OGL LOG][Preconditioner.H:121] Generate preconditioner BJ MaxBlockSize 1
[OGL LOG][Proc: 0]p: init_precond: 1.12 [ms]
[OGL LOG][StoppingCriterion.H:373] Creating stopping criterion with minIter 1373 frequency 13
[OGL LOG][Proc: 0]p: generate_solver: 0.004 [ms]
[OGL LOG][Proc: 0]p: solve: 4116.76 [ms]
[OGL LOG][Proc: 0]p: copy_x_back: 9.645 [ms]
[OGL LOG][lduLduBase.H:330] 
Statistics:
	Time per iteration: 1798 [mu s]
	Time per residual norm calculation: 311.000000 [mu s]
	Time per iteration and DOF: 0.066593 [ns]
	Retrieve results bandwidth 2.799000 [GByte/s]
[OGL LOG][Proc: 0]p: solve_multi_gpu: 4160.67 [ms]
BJhipGKOCG:  Solving for p, Initial residual = 0.903189, Final residual = 8.58324e-05, No Iterations 2289
[INFO] SolveP: 4211.74 [ms]
time step continuity errors : sum local = 1.04413e-08, global = 4.66642e-22, cumulative = 2.00401e-20
[INFO] ContinuityError: 49.332 [ms]
[INFO] CorrectBoundary: 3.253 [ms]
[INFO] PISOStep: 4838.82 [ms]
[INFO] MatrixAssemblyPI: 334.953 [ms]
[INFO] AdjustPhi: 19.254 [ms]
[INFO] ConstrainPressure: 0.005 [ms]
[INFO] MatrixAssemblyPII: 97.859 [ms]
[OGL LOG][Proc: 0]: global_index_init: 0.167 [ms]
[OGL LOG][Proc: 0]p_local_coeffs: call_update: 0 [ms]
[OGL LOG][Proc: 0]p_non_local_coeffs: call_update: 0 [ms]
[OGL LOG][Proc: 0]p: update_local_matrix_data: 38.548 [ms]
[OGL LOG][Proc: 0]p: update_non_local_matrix_data: 0.243 [ms]
[OGL LOG][Proc: 0]p_matrix: call_update: 22.897 [ms]
[OGL LOG][Proc: 0]p_rhs: call_update: 7.985 [ms]
[OGL LOG][Preconditioner.H:121] Generate preconditioner BJ MaxBlockSize 1
[OGL LOG][Proc: 0]p: init_precond: 1.101 [ms]
[OGL LOG][StoppingCriterion.H:373] Creating stopping criterion with minIter 1373 frequency 13
[OGL LOG][Proc: 0]p: generate_solver: 0.003 [ms]
[OGL LOG][Proc: 0]p: solve: 4146.32 [ms]
[OGL LOG][Proc: 0]p: copy_x_back: 9.601 [ms]
[OGL LOG][lduLduBase.H:330] 
Statistics:
	Time per iteration: 1811 [mu s]
	Time per residual norm calculation: 347.000000 [mu s]
	Time per iteration and DOF: 0.067074 [ns]
	Retrieve results bandwidth 2.812000 [GByte/s]
[OGL LOG][Proc: 0]p: solve_multi_gpu: 4190.07 [ms]
BJhipGKOCG:  Solving for p, Initial residual = 0.8421, Final residual = 8.02563e-05, No Iterations 2289
[INFO] SolveP: 4242.36 [ms]
time step continuity errors : sum local = 9.70781e-09, global = -2.00686e-22, cumulative = 1.98395e-20
[INFO] ContinuityError: 50.528 [ms]
[INFO] CorrectBoundary: 1.851 [ms]
[INFO] PISOStep: 4857.97 [ms]
[INFO] TimeStep: 12980.5 [ms]
ExecutionTime = 229.8 s  ClockTime = 191 s

Time = 0.002656

Courant Number mean: 0.0464224 max: 0.492864
[INFO] MatrixAssemblyU: 261.953 [ms]
DILUPBiCGStab:  Solving for Ux, Initial residual = 0.0156454, Final residual = 0.0012417, No Iterations 5
DILUPBiCGStab:  Solving for Uy, Initial residual = 0.0572723, Final residual = 0.00351454, No Iterations 5
DILUPBiCGStab:  Solving for Uz, Initial residual = 0.474041, Final residual = 0.0154122, No Iterations 5
[INFO] MomentumPredictor: 2966.09 [ms]
[INFO] MatrixAssemblyPI: 343.659 [ms]
[INFO] AdjustPhi: 20.42 [ms]
[INFO] ConstrainPressure: 0.005 [ms]
[INFO] MatrixAssemblyPII: 98.098 [ms]
[OGL LOG][Proc: 0]: global_index_init: 0.085 [ms]
[OGL LOG][Proc: 0]p_local_coeffs: call_update: 0 [ms]
[OGL LOG][Proc: 0]p_non_local_coeffs: call_update: 0 [ms]
[OGL LOG][Proc: 0]p: update_local_matrix_data: 38.859 [ms]
[OGL LOG][Proc: 0]p: update_non_local_matrix_data: 0.246 [ms]
[OGL LOG][Proc: 0]p_matrix: call_update: 25.956 [ms]
[OGL LOG][Proc: 0]p_rhs: call_update: 11.81 [ms]
[OGL LOG][Preconditioner.H:121] Generate preconditioner BJ MaxBlockSize 1
[OGL LOG][Proc: 0]p: init_precond: 1.092 [ms]
[OGL LOG][StoppingCriterion.H:373] Creating stopping criterion with minIter 1373 frequency 13
[OGL LOG][Proc: 0]p: generate_solver: 0.003 [ms]
[OGL LOG][Proc: 0]p: solve: 4112 [ms]
[OGL LOG][Proc: 0]p: copy_x_back: 9.844 [ms]
[OGL LOG][lduLduBase.H:330] 
Statistics:
	Time per iteration: 1796 [mu s]
	Time per residual norm calculation: 329.000000 [mu s]
	Time per iteration and DOF: 0.066519 [ns]
	Retrieve results bandwidth 2.742000 [GByte/s]
[OGL LOG][Proc: 0]p: solve_multi_gpu: 4162.41 [ms]
BJhipGKOCG:  Solving for p, Initial residual = 0.889481, Final residual = 8.98651e-05, No Iterations 2289
[INFO] SolveP: 4211.74 [ms]
time step continuity errors : sum local = 1.1372e-08, global = 6.77167e-22, cumulative = 2.05166e-20
[INFO] ContinuityError: 48.723 [ms]
[INFO] CorrectBoundary: 1.359 [ms]
[INFO] PISOStep: 4836.15 [ms]
[INFO] MatrixAssemblyPI: 336.13 [ms]
[INFO] AdjustPhi: 22.114 [ms]
[INFO] ConstrainPressure: 0.005 [ms]
[INFO] MatrixAssemblyPII: 98.155 [ms]
[OGL LOG][Proc: 0]: global_index_init: 0.035 [ms]
[OGL LOG][Proc: 0]p_local_coeffs: call_update: 0 [ms]
[OGL LOG][Proc: 0]p_non_local_coeffs: call_update: 0 [ms]
[OGL LOG][Proc: 0]p: update_local_matrix_data: 38.546 [ms]
[OGL LOG][Proc: 0]p: update_non_local_matrix_data: 0.241 [ms]
[OGL LOG][Proc: 0]p_matrix: call_update: 24.545 [ms]
[OGL LOG][Proc: 0]p_rhs: call_update: 5.613 [ms]
[OGL LOG][Preconditioner.H:121] Generate preconditioner BJ MaxBlockSize 1
[OGL LOG][Proc: 0]p: init_precond: 1.088 [ms]
[OGL LOG][StoppingCriterion.H:373] Creating stopping criterion with minIter 1373 frequency 13
[OGL LOG][Proc: 0]p: generate_solver: 0.003 [ms]
[OGL LOG][Proc: 0]p: solve: 4110.44 [ms]
[OGL LOG][Proc: 0]p: copy_x_back: 8.965 [ms]
[OGL LOG][lduLduBase.H:330] 
Statistics:
	Time per iteration: 1795 [mu s]
	Time per residual norm calculation: 333.000000 [mu s]
	Time per iteration and DOF: 0.066481 [ns]
	Retrieve results bandwidth 3.011000 [GByte/s]
[OGL LOG][Proc: 0]p: solve_multi_gpu: 4153.3 [ms]
BJhipGKOCG:  Solving for p, Initial residual = 0.816802, Final residual = 8.28331e-05, No Iterations 2289
[INFO] SolveP: 4203.75 [ms]
time step continuity errors : sum local = 1.0571e-08, global = 1.48385e-21, cumulative = 2.20005e-20
[INFO] ContinuityError: 49.647 [ms]
[INFO] CorrectBoundary: 2.266 [ms]
[INFO] PISOStep: 4823.43 [ms]
[INFO] TimeStep: 12932.8 [ms]
ExecutionTime = 245.54 s  ClockTime = 204 s

Time = 0.002822

Courant Number mean: 0.0475331 max: 0.551147
[INFO] MatrixAssemblyU: 262.596 [ms]
DILUPBiCGStab:  Solving for Ux, Initial residual = 0.0150639, Final residual = 0.00114891, No Iterations 5
DILUPBiCGStab:  Solving for Uy, Initial residual = 0.0586048, Final residual = 0.00355361, No Iterations 5
DILUPBiCGStab:  Solving for Uz, Initial residual = 0.485264, Final residual = 0.0154012, No Iterations 5
[INFO] MomentumPredictor: 2958.22 [ms]
[INFO] MatrixAssemblyPI: 342.422 [ms]
[INFO] AdjustPhi: 19.419 [ms]
[INFO] ConstrainPressure: 0.005 [ms]
[INFO] MatrixAssemblyPII: 98.123 [ms]
[OGL LOG][Proc: 0]: global_index_init: 0.245 [ms]
[OGL LOG][Proc: 0]p_local_coeffs: call_update: 0 [ms]
[OGL LOG][Proc: 0]p_non_local_coeffs: call_update: 0 [ms]
[OGL LOG][Proc: 0]p: update_local_matrix_data: 39.397 [ms]
[OGL LOG][Proc: 0]p: update_non_local_matrix_data: 0.242 [ms]
[OGL LOG][Proc: 0]p_matrix: call_update: 47.323 [ms]
[OGL LOG][Proc: 0]p_rhs: call_update: 6.626 [ms]
[OGL LOG][Preconditioner.H:121] Generate preconditioner BJ MaxBlockSize 1
[OGL LOG][Proc: 0]p: init_precond: 1.108 [ms]
[OGL LOG][StoppingCriterion.H:373] Creating stopping criterion with minIter 1373 frequency 13
[OGL LOG][Proc: 0]p: generate_solver: 0.004 [ms]
[OGL LOG][Proc: 0]p: solve: 4120.28 [ms]
[OGL LOG][Proc: 0]p: copy_x_back: 9.521 [ms]
[OGL LOG][lduLduBase.H:330] 
Statistics:
	Time per iteration: 1800 [mu s]
	Time per residual norm calculation: 358.000000 [mu s]
	Time per iteration and DOF: 0.066667 [ns]
	Retrieve results bandwidth 2.835000 [GByte/s]
[OGL LOG][Proc: 0]p: solve_multi_gpu: 4186.59 [ms]
BJhipGKOCG:  Solving for p, Initial residual = 0.90474, Final residual = 8.70052e-05, No Iterations 2289
[INFO] SolveP: 4239.46 [ms]
time step continuity errors : sum local = 1.11015e-08, global = 1.33683e-21, cumulative = 2.33373e-20
[INFO] ContinuityError: 50.338 [ms]
[INFO] CorrectBoundary: 1.828 [ms]
[INFO] PISOStep: 4864.16 [ms]
[INFO] MatrixAssemblyPI: 334.482 [ms]
[INFO] AdjustPhi: 21.066 [ms]
[INFO] ConstrainPressure: 0.004 [ms]
[INFO] MatrixAssemblyPII: 98.192 [ms]
[OGL LOG][Proc: 0]: global_index_init: 0.116 [ms]
[OGL LOG][Proc: 0]p_local_coeffs: call_update: 0 [ms]
[OGL LOG][Proc: 0]p_non_local_coeffs: call_update: 0 [ms]
[OGL LOG][Proc: 0]p: update_local_matrix_data: 38.503 [ms]
[OGL LOG][Proc: 0]p: update_non_local_matrix_data: 0.241 [ms]
[OGL LOG][Proc: 0]p_matrix: call_update: 21.546 [ms]
[OGL LOG][Proc: 0]p_rhs: call_update: 11.097 [ms]
[OGL LOG][Preconditioner.H:121] Generate preconditioner BJ MaxBlockSize 1
[OGL LOG][Proc: 0]p: init_precond: 1.102 [ms]
[OGL LOG][StoppingCriterion.H:373] Creating stopping criterion with minIter 1373 frequency 13
[OGL LOG][Proc: 0]p: generate_solver: 0.003 [ms]
[OGL LOG][Proc: 0]p: solve: 4143.4 [ms]
[OGL LOG][Proc: 0]p: copy_x_back: 9.432 [ms]
[OGL LOG][lduLduBase.H:330] 
Statistics:
	Time per iteration: 1810 [mu s]
	Time per residual norm calculation: 342.000000 [mu s]
	Time per iteration and DOF: 0.067037 [ns]
	Retrieve results bandwidth 2.862000 [GByte/s]
[OGL LOG][Proc: 0]p: solve_multi_gpu: 4188.46 [ms]
BJhipGKOCG:  Solving for p, Initial residual = 0.840561, Final residual = 8.13046e-05, No Iterations 2289
[INFO] SolveP: 4239.54 [ms]
time step continuity errors : sum local = 1.03282e-08, global = -7.42459e-22, cumulative = 2.25948e-20
[INFO] ContinuityError: 48.565 [ms]
[INFO] CorrectBoundary: 1.199 [ms]
[INFO] PISOStep: 4855.16 [ms]
[INFO] TimeStep: 12985.5 [ms]
ExecutionTime = 261.33 s  ClockTime = 217 s

Time = 0.002988

Courant Number mean: 0.0485163 max: 0.496213
[INFO] MatrixAssemblyU: 260.514 [ms]
DILUPBiCGStab:  Solving for Ux, Initial residual = 0.0151936, Final residual = 0.00115601, No Iterations 5
DILUPBiCGStab:  Solving for Uy, Initial residual = 0.0555201, Final residual = 0.00320609, No Iterations 5
DILUPBiCGStab:  Solving for Uz, Initial residual = 0.481781, Final residual = 0.0152096, No Iterations 5
[INFO] MomentumPredictor: 2960.37 [ms]
[INFO] MatrixAssemblyPI: 345.204 [ms]
[INFO] AdjustPhi: 18.33 [ms]
[INFO] ConstrainPressure: 0.005 [ms]
[INFO] MatrixAssemblyPII: 98.288 [ms]
[OGL LOG][Proc: 0]: global_index_init: 0.271 [ms]
[OGL LOG][Proc: 0]p_local_coeffs: call_update: 0 [ms]
[OGL LOG][Proc: 0]p_non_local_coeffs: call_update: 0 [ms]
[OGL LOG][Proc: 0]p: update_local_matrix_data: 38.863 [ms]
[OGL LOG][Proc: 0]p: update_non_local_matrix_data: 0.24 [ms]
[OGL LOG][Proc: 0]p_matrix: call_update: 27.259 [ms]
[OGL LOG][Proc: 0]p_rhs: call_update: 4.399 [ms]
[OGL LOG][Preconditioner.H:121] Generate preconditioner BJ MaxBlockSize 1
[OGL LOG][Proc: 0]p: init_precond: 1.136 [ms]
[OGL LOG][StoppingCriterion.H:373] Creating stopping criterion with minIter 1373 frequency 13
[OGL LOG][Proc: 0]p: generate_solver: 0.005 [ms]
[OGL LOG][Proc: 0]p: solve: 4141.72 [ms]
[OGL LOG][Proc: 0]p: copy_x_back: 9.324 [ms]
[OGL LOG][lduLduBase.H:330] 
Statistics:
	Time per iteration: 1809 [mu s]
	Time per residual norm calculation: 349.000000 [mu s]
	Time per iteration and DOF: 0.067000 [ns]
	Retrieve results bandwidth 2.895000 [GByte/s]
[OGL LOG][Proc: 0]p: solve_multi_gpu: 4185.59 [ms]
BJhipGKOCG:  Solving for p, Initial residual = 0.894212, Final residual = 9.0787e-05, No Iterations 2289
[INFO] SolveP: 4235.22 [ms]
time step continuity errors : sum local = 1.20476e-08, global = -1.11439e-21, cumulative = 2.14805e-20
[INFO] ContinuityError: 50.195 [ms]
[INFO] CorrectBoundary: 1.169 [ms]
[INFO] PISOStep: 4859.16 [ms]
[INFO] MatrixAssemblyPI: 335.14 [ms]
[INFO] AdjustPhi: 21.423 [ms]
[INFO] ConstrainPressure: 0.005 [ms]
[INFO] MatrixAssemblyPII: 98.225 [ms]
[OGL LOG][Proc: 0]: global_index_init: 0.035 [ms]
[OGL LOG][Proc: 0]p_local_coeffs: call_update: 0 [ms]
[OGL LOG][Proc: 0]p_non_local_coeffs: call_update: 0 [ms]
[OGL LOG][Proc: 0]p: update_local_matrix_data: 38.69 [ms]
[OGL LOG][Proc: 0]p: update_non_local_matrix_data: 0.231 [ms]
[OGL LOG][Proc: 0]p_matrix: call_update: 23.049 [ms]
[OGL LOG][Proc: 0]p_rhs: call_update: 7.298 [ms]
[OGL LOG][Preconditioner.H:121] Generate preconditioner BJ MaxBlockSize 1
[OGL LOG][Proc: 0]p: init_precond: 1.097 [ms]
[OGL LOG][StoppingCriterion.H:373] Creating stopping criterion with minIter 1373 frequency 13
[OGL LOG][Proc: 0]p: generate_solver: 0.004 [ms]
[OGL LOG][Proc: 0]p: solve: 4123.15 [ms]
[OGL LOG][Proc: 0]p: copy_x_back: 9.389 [ms]
[OGL LOG][lduLduBase.H:330] 
Statistics:
	Time per iteration: 1801 [mu s]
	Time per residual norm calculation: 333.000000 [mu s]
	Time per iteration and DOF: 0.066704 [ns]
	Retrieve results bandwidth 2.875000 [GByte/s]
[OGL LOG][Proc: 0]p: solve_multi_gpu: 4165.93 [ms]
BJhipGKOCG:  Solving for p, Initial residual = 0.820091, Final residual = 8.38041e-05, No Iterations 2289
[INFO] SolveP: 4215.63 [ms]
time step continuity errors : sum local = 1.12029e-08, global = -2.30255e-23, cumulative = 2.14574e-20
[INFO] ContinuityError: 50.447 [ms]
[INFO] CorrectBoundary: 0.885 [ms]
[INFO] PISOStep: 4832.85 [ms]
[INFO] TimeStep: 12958.2 [ms]
ExecutionTime = 277.09 s  ClockTime = 230 s

Time = 0.003154

Courant Number mean: 0.0495292 max: 0.562889
[INFO] MatrixAssemblyU: 260.206 [ms]
DILUPBiCGStab:  Solving for Ux, Initial residual = 0.0147859, Final residual = 0.00107209, No Iterations 5
DILUPBiCGStab:  Solving for Uy, Initial residual = 0.0571289, Final residual = 0.00327067, No Iterations 5
DILUPBiCGStab:  Solving for Uz, Initial residual = 0.49337, Final residual = 0.0152598, No Iterations 5
[INFO] MomentumPredictor: 2966.2 [ms]
[INFO] MatrixAssemblyPI: 342.537 [ms]
[INFO] AdjustPhi: 20.336 [ms]
[INFO] ConstrainPressure: 0.005 [ms]
[INFO] MatrixAssemblyPII: 98.212 [ms]
[OGL LOG][Proc: 0]: global_index_init: 0.035 [ms]
[OGL LOG][Proc: 0]p_local_coeffs: call_update: 0 [ms]
[OGL LOG][Proc: 0]p_non_local_coeffs: call_update: 0 [ms]
[OGL LOG][Proc: 0]p: update_local_matrix_data: 38.75 [ms]
[OGL LOG][Proc: 0]p: update_non_local_matrix_data: 0.237 [ms]
[OGL LOG][Proc: 0]p_matrix: call_update: 27.111 [ms]
[OGL LOG][Proc: 0]p_rhs: call_update: 5.763 [ms]
[OGL LOG][Preconditioner.H:121] Generate preconditioner BJ MaxBlockSize 1
[OGL LOG][Proc: 0]p: init_precond: 1.114 [ms]
[OGL LOG][StoppingCriterion.H:373] Creating stopping criterion with minIter 1373 frequency 13
[OGL LOG][Proc: 0]p: generate_solver: 0.003 [ms]
[OGL LOG][Proc: 0]p: solve: 4105.53 [ms]
[OGL LOG][Proc: 0]p: copy_x_back: 9.54 [ms]
[OGL LOG][lduLduBase.H:330] 
Statistics:
	Time per iteration: 1793 [mu s]
	Time per residual norm calculation: 348.000000 [mu s]
	Time per iteration and DOF: 0.066407 [ns]
	Retrieve results bandwidth 2.830000 [GByte/s]
[OGL LOG][Proc: 0]p: solve_multi_gpu: 4150.92 [ms]
BJhipGKOCG:  Solving for p, Initial residual = 0.90748, Final residual = 8.93433e-05, No Iterations 2289
[INFO] SolveP: 4200.24 [ms]
time step continuity errors : sum local = 1.20196e-08, global = 8.19667e-23, cumulative = 2.15394e-20
[INFO] ContinuityError: 50.109 [ms]
[INFO] CorrectBoundary: 1.029 [ms]
[INFO] PISOStep: 4826.17 [ms]
[INFO] MatrixAssemblyPI: 336.852 [ms]
[INFO] AdjustPhi: 20.01 [ms]
[INFO] ConstrainPressure: 0.005 [ms]
[INFO] MatrixAssemblyPII: 98.32 [ms]
[OGL LOG][Proc: 0]: global_index_init: 0.036 [ms]
[OGL LOG][Proc: 0]p_local_coeffs: call_update: 0 [ms]
[OGL LOG][Proc: 0]p_non_local_coeffs: call_update: 0 [ms]
[OGL LOG][Proc: 0]p: update_local_matrix_data: 38.71 [ms]
[OGL LOG][Proc: 0]p: update_non_local_matrix_data: 0.247 [ms]
[OGL LOG][Proc: 0]p_matrix: call_update: 41.972 [ms]
[OGL LOG][Proc: 0]p_rhs: call_update: 6.309 [ms]
[OGL LOG][Preconditioner.H:121] Generate preconditioner BJ MaxBlockSize 1
[OGL LOG][Proc: 0]p: init_precond: 1.107 [ms]
[OGL LOG][StoppingCriterion.H:373] Creating stopping criterion with minIter 1373 frequency 13
[OGL LOG][Proc: 0]p: generate_solver: 0.004 [ms]
[OGL LOG][Proc: 0]p: solve: 4112.32 [ms]
[OGL LOG][Proc: 0]p: copy_x_back: 9.538 [ms]
[OGL LOG][lduLduBase.H:330] 
Statistics:
	Time per iteration: 1796 [mu s]
	Time per residual norm calculation: 311.000000 [mu s]
	Time per iteration and DOF: 0.066519 [ns]
	Retrieve results bandwidth 2.830000 [GByte/s]
[OGL LOG][Proc: 0]p: solve_multi_gpu: 4173.15 [ms]
BJhipGKOCG:  Solving for p, Initial residual = 0.840473, Final residual = 8.33156e-05, No Iterations 2289
[INFO] SolveP: 4224.01 [ms]
time step continuity errors : sum local = 1.11712e-08, global = -5.66245e-22, cumulative = 2.09731e-20
[INFO] ContinuityError: 50.336 [ms]
[INFO] CorrectBoundary: 2.875 [ms]
[INFO] PISOStep: 4844.47 [ms]
[INFO] TimeStep: 12943.7 [ms]
ExecutionTime = 292.83 s  ClockTime = 243 s

Time = 0.00332

Courant Number mean: 0.050419 max: 0.499823
[INFO] MatrixAssemblyU: 262.321 [ms]
DILUPBiCGStab:  Solving for Ux, Initial residual = 0.0150189, Final residual = 0.00108516, No Iterations 5
DILUPBiCGStab:  Solving for Uy, Initial residual = 0.054818, Final residual = 0.00297771, No Iterations 5
DILUPBiCGStab:  Solving for Uz, Initial residual = 0.491751, Final residual = 0.0151498, No Iterations 5
[INFO] MomentumPredictor: 2963.49 [ms]
[INFO] MatrixAssemblyPI: 343.998 [ms]
[INFO] AdjustPhi: 23.516 [ms]
[INFO] ConstrainPressure: 0.005 [ms]
[INFO] MatrixAssemblyPII: 98.279 [ms]
[OGL LOG][Proc: 0]: global_index_init: 0.037 [ms]
[OGL LOG][Proc: 0]p_local_coeffs: call_update: 0.001 [ms]
[OGL LOG][Proc: 0]p_non_local_coeffs: call_update: 0 [ms]
[OGL LOG][Proc: 0]p: update_local_matrix_data: 39.292 [ms]
[OGL LOG][Proc: 0]p: update_non_local_matrix_data: 0.296 [ms]
[OGL LOG][Proc: 0]p_matrix: call_update: 22.853 [ms]
[OGL LOG][Proc: 0]p_rhs: call_update: 8.221 [ms]
[OGL LOG][Preconditioner.H:121] Generate preconditioner BJ MaxBlockSize 1
[OGL LOG][Proc: 0]p: init_precond: 1.127 [ms]
[OGL LOG][StoppingCriterion.H:373] Creating stopping criterion with minIter 1373 frequency 13
[OGL LOG][Proc: 0]p: generate_solver: 0.004 [ms]
[OGL LOG][Proc: 0]p: solve: 4105.96 [ms]
[OGL LOG][Proc: 0]p: copy_x_back: 9.612 [ms]
[OGL LOG][lduLduBase.H:330] 
Statistics:
	Time per iteration: 1793 [mu s]
	Time per residual norm calculation: 352.000000 [mu s]
	Time per iteration and DOF: 0.066407 [ns]
	Retrieve results bandwidth 2.808000 [GByte/s]
[OGL LOG][Proc: 0]p: solve_multi_gpu: 4149.16 [ms]
BJhipGKOCG:  Solving for p, Initial residual = 0.899793, Final residual = 9.23125e-05, No Iterations 2289
[INFO] SolveP: 4200.16 [ms]
time step continuity errors : sum local = 1.29066e-08, global = 2.02453e-21, cumulative = 2.29977e-20
[INFO] ContinuityError: 51.844 [ms]
[INFO] CorrectBoundary: 0.907 [ms]
[INFO] PISOStep: 4830.75 [ms]
[INFO] MatrixAssemblyPI: 335.589 [ms]
[INFO] AdjustPhi: 24.934 [ms]
[INFO] ConstrainPressure: 0.005 [ms]
[INFO] MatrixAssemblyPII: 99.007 [ms]
[OGL LOG][Proc: 0]: global_index_init: 0.095 [ms]
[OGL LOG][Proc: 0]p_local_coeffs: call_update: 0 [ms]
[OGL LOG][Proc: 0]p_non_local_coeffs: call_update: 0 [ms]
[OGL LOG][Proc: 0]p: update_local_matrix_data: 38.564 [ms]
[OGL LOG][Proc: 0]p: update_non_local_matrix_data: 0.254 [ms]
[OGL LOG][Proc: 0]p_matrix: call_update: 26.946 [ms]
[OGL LOG][Proc: 0]p_rhs: call_update: 3.884 [ms]
[OGL LOG][Preconditioner.H:121] Generate preconditioner BJ MaxBlockSize 1
[OGL LOG][Proc: 0]p: init_precond: 1.165 [ms]
[OGL LOG][StoppingCriterion.H:373] Creating stopping criterion with minIter 1373 frequency 13
[OGL LOG][Proc: 0]p: generate_solver: 0.004 [ms]
[OGL LOG][Proc: 0]p: solve: 4153.18 [ms]
[OGL LOG][Proc: 0]p: copy_x_back: 9.786 [ms]
[OGL LOG][lduLduBase.H:330] 
Statistics:
	Time per iteration: 1814 [mu s]
	Time per residual norm calculation: 331.000000 [mu s]
	Time per iteration and DOF: 0.067185 [ns]
	Retrieve results bandwidth 2.759000 [GByte/s]
[OGL LOG][Proc: 0]p: solve_multi_gpu: 4197.18 [ms]
BJhipGKOCG:  Solving for p, Initial residual = 0.824739, Final residual = 8.5438e-05, No Iterations 2289
[INFO] SolveP: 4246.46 [ms]
time step continuity errors : sum local = 1.20225e-08, global = -5.43627e-23, cumulative = 2.29433e-20
[INFO] ContinuityError: 46.564 [ms]
[INFO] CorrectBoundary: 3.756 [ms]
[INFO] PISOStep: 4874.32 [ms]
[INFO] TimeStep: 12975.4 [ms]
ExecutionTime = 308.6 s  ClockTime = 256 s

End

Finalising parallel run
