/*---------------------------------------------------------------------------*\
| =========                 |                                                 |
| \\      /  F ield         | OpenFOAM: The Open Source CFD Toolbox           |
|  \\    /   O peration     | Version:  2306                                  |
|   \\  /    A nd           | Website:  www.openfoam.com                      |
|    \\/     M anipulation  |                                                 |
\*---------------------------------------------------------------------------*/
Build  : c423ebec-20231012 OPENFOAM=2306 version=v2306
Arch   : "LSB;label=32;scalar=64"
Exec   : icoFoam -parallel -case /hkfs/work/workspace/scratch/eq4036-l3d/workspace/cdcc27b2efe88c032fd1484b3e455da1/case
Date   : Jan 10 2024
Time   : 21:59:55
Host   : hkn0618.localdomain
PID    : 1845100
I/O    : uncollated
Case   : /hkfs/work/workspace/scratch/eq4036-l3d/workspace/cdcc27b2efe88c032fd1484b3e455da1/case
nProcs : 76
Hosts  :
(
    (hkn0618.localdomain 76)
)
Pstream initialized with:
    floatTransfer      : false
    nProcsSimpleSum    : 0
    nonBlockingExchange: 0 (tuning: 0)
    exchange algorithm : -1
    commsType          : nonBlocking
    polling iterations : 0
trapFpe: Floating point exception trapping enabled (FOAM_SIGFPE).
fileModificationChecking : Monitoring run-time modified files using timeStampMaster (fileModificationSkew 5, maxFileModificationPolls 20)
allowSystemOperations : Allowing user-supplied system call operations

// * * * * * * * * * * * * * * * * * * * * * * * * * * * * * * * * * * * * * //
Create time

--> FOAM Warning : 
    From void* Foam::dlLibraryTable::openLibrary(const Foam::fileName&, bool)
    in file db/dynamicLibrary/dlLibraryTable/dlLibraryTable.C at line 188
    Could not load "libpetscFoam.so"
libpetscFoam.so: cannot open shared object file: No such file or directory
Create mesh for time = 0


PISO: Operating solver in PISO mode

Reading transportProperties

Reading field p

Reading field U

Reading/calculating face flux field phi


Starting time loop

Time = 0.00025

Courant Number mean: 8.24341e-18 max: 2.08167e-14
[INFO] MatrixAssemblyU: 71.375 [ms]
DILUPBiCGStab:  Solving for Ux, Initial residual = 1, Final residual = 0.0154023, No Iterations 5
DILUPBiCGStab:  Solving for Uy:  solution singularity
DILUPBiCGStab:  Solving for Uz:  solution singularity
[INFO] MomentumPredictor: 201.312 [ms]
[INFO] MatrixAssemblyPI: 65.624 [ms]
[INFO] AdjustPhi: 9.769 [ms]
[INFO] ConstrainPressure: 0.007 [ms]
[INFO] MatrixAssemblyPII: 16.155 [ms]
[OGL LOG][lduLduBase.H:119] Initialising OGL
	OGL commit:  e75313f+
	Branch: dev 
	Build type: Debug
	Ginkgo version: 1.8.0 ( develop)
	Ginkgo commit: sparse-communicator
	MPI is GPU aware: 1
	Forces host buffer based communication: 0
	CPU ranks per GPU: 1
	Matrix format: Ell
	End OGL_INFO
[OGL LOG][Proc: 0]: global_index_init: 58.381 [ms]
[OGL LOG][Proc: 0]p_local_cols: call_init: 1.84 [ms]
[OGL LOG][Proc: 0]p_local_rows: call_init: 0.065 [ms]
[OGL LOG][Proc: 0]p_local_ldu_map: call_init: 0.326 [ms]
[OGL LOG][Proc: 0]p_local_coeffs: call_init: 19.349 [ms]
[OGL LOG][Proc: 0]p_non_local_cols: call_init: 0.023 [ms]
[OGL LOG][Proc: 0]p_non_local_rows: call_init: 0.007 [ms]
[OGL LOG][Proc: 0]p_non_local_ldu_map: call_init: 0.013 [ms]
[OGL LOG][Proc: 0]p_non_local_coeffs: call_init: 0.015 [ms]
[OGL LOG][Proc: 0]p: init_local_sparsity_pattern: 2554.33 [ms]
[OGL LOG][Proc: 0]p: init_non_local_sparsity_pattern: 143.672 [ms]
[OGL LOG][Proc: 0]p: update_local_matrix_data: 49 [ms]
[OGL LOG][Proc: 0]p: update_non_local_matrix_data: 0.798 [ms]
[OGL LOG][Proc: 0]device_partition: call_init: 0.238 [ms]
[OGL LOG][Proc: 0]p_matrix: call_init: 59.224 [ms]
[OGL LOG][Proc: 0]p_rhs: call_init: 3.644 [ms]
[OGL LOG][Proc: 0]p_solution: call_init: 3.856 [ms]
[OGL LOG][Preconditioner.H:121] Generate preconditioner BJ MaxBlockSize 1
[OGL LOG][Proc: 0]p: init_precond: 47.421 [ms]
[OGL LOG][StoppingCriterion.H:239] Creating stopping criterion with minIter 0 frequency 1
[OGL LOG][Proc: 0]p: generate_solver: 0.516 [ms]
[OGL LOG][Proc: 0]p: solve: 53617 [ms]
[OGL LOG][Proc: 0]p: copy_x_back: 0.792 [ms]
[OGL LOG][lduLduBase.H:330] 
Statistics:
	Time per iteration: 33742 [mu s]
	Time per residual norm calculation: 29012.000000 [mu s]
	Time per iteration and DOF: 4.217750 [ns]
	Retrieve results bandwidth 1.105000 [GByte/s]
[OGL LOG][Proc: 0]p: solve_multi_gpu: 53827.1 [ms]
BJcudaGKOCG:  Solving for p, Initial residual = 1, Final residual = 9.96749e-05, No Iterations 1589
[INFO] SolveP: 77609.9 [ms]
time step continuity errors : sum local = 7.75651e-09, global = -9.52486e-23, cumulative = -9.52486e-23
[INFO] ContinuityError: 12.938 [ms]
[INFO] CorrectBoundary: 1.391 [ms]
[INFO] PISOStep: 77743.7 [ms]
[INFO] MatrixAssemblyPI: 65.003 [ms]
[INFO] AdjustPhi: 4.266 [ms]
[INFO] ConstrainPressure: 0.004 [ms]
[INFO] MatrixAssemblyPII: 16.876 [ms]
[OGL LOG][Proc: 0]: global_index_init: 3.279 [ms]
[OGL LOG][Proc: 0]p_local_coeffs: call_update: 0.001 [ms]
[OGL LOG][Proc: 0]p_non_local_coeffs: call_update: 0 [ms]
[OGL LOG][Proc: 0]p: update_local_matrix_data: 31.211 [ms]
[OGL LOG][Proc: 0]p: update_non_local_matrix_data: 0.674 [ms]
[OGL LOG][Proc: 0]p: regenerate_distributed_matrix: 53.264 [ms]
[OGL LOG][Proc: 0]p_matrix: call_update: 64.637 [ms]
[OGL LOG][Proc: 0]p_rhs: call_update: 0.373 [ms]
[OGL LOG][Preconditioner.H:121] Generate preconditioner BJ MaxBlockSize 1
[OGL LOG][Proc: 0]p: init_precond: 1.448 [ms]
[OGL LOG][StoppingCriterion.H:239] Creating stopping criterion with minIter 953 frequency 25
[OGL LOG][Proc: 0]p: generate_solver: 0.02 [ms]
[OGL LOG][Proc: 0]p: solve: 35063.4 [ms]
[OGL LOG][Proc: 0]p: copy_x_back: 0.876 [ms]
[OGL LOG][lduLduBase.H:330] 
Statistics:
	Time per iteration: 21900 [mu s]
	Time per residual norm calculation: 10153.000000 [mu s]
	Time per iteration and DOF: 2.737500 [ns]
	Retrieve results bandwidth 0.999000 [GByte/s]
[OGL LOG][Proc: 0]p: solve_multi_gpu: 35160.1 [ms]
BJcudaGKOCG:  Solving for p, Initial residual = 0.75903, Final residual = 6.33947e-05, No Iterations 1601
[INFO] SolveP: 35198.7 [ms]
time step continuity errors : sum local = 6.24347e-09, global = -2.39357e-21, cumulative = -2.48881e-21
[INFO] ContinuityError: 3.525 [ms]
[INFO] CorrectBoundary: 0.818 [ms]
[INFO] PISOStep: 35316 [ms]
[INFO] TimeStep: 113345 [ms]
ExecutionTime = 96.37 s  ClockTime = 115 s

Time = 0.0005

Courant Number mean: 0.0156125 max: 0.411822
[INFO] MatrixAssemblyU: 58.278 [ms]
DILUPBiCGStab:  Solving for Ux, Initial residual = 0.129494, Final residual = 0.00856219, No Iterations 5
DILUPBiCGStab:  Solving for Uy, Initial residual = 0.429486, Final residual = 0.0211759, No Iterations 5
DILUPBiCGStab:  Solving for Uz, Initial residual = 0.988386, Final residual = 0.0560443, No Iterations 5
[INFO] MomentumPredictor: 369.235 [ms]
[INFO] MatrixAssemblyPI: 65.438 [ms]
[INFO] AdjustPhi: 3.312 [ms]
[INFO] ConstrainPressure: 0.003 [ms]
[INFO] MatrixAssemblyPII: 15.123 [ms]
[OGL LOG][Proc: 0]: global_index_init: 0.07 [ms]
[OGL LOG][Proc: 0]p_local_coeffs: call_update: 0 [ms]
[OGL LOG][Proc: 0]p_non_local_coeffs: call_update: 0 [ms]
[OGL LOG][Proc: 0]p: update_local_matrix_data: 30.372 [ms]
[OGL LOG][Proc: 0]p: update_non_local_matrix_data: 0.663 [ms]
[OGL LOG][Proc: 0]p: regenerate_distributed_matrix: 52.657 [ms]
[OGL LOG][Proc: 0]p_matrix: call_update: 63.747 [ms]
[OGL LOG][Proc: 0]p_rhs: call_update: 0.375 [ms]
[OGL LOG][Preconditioner.H:121] Generate preconditioner BJ MaxBlockSize 1
[OGL LOG][Proc: 0]p: init_precond: 1.416 [ms]
[OGL LOG][StoppingCriterion.H:239] Creating stopping criterion with minIter 960 frequency 17
[OGL LOG][Proc: 0]p: generate_solver: 0.018 [ms]
[OGL LOG][Proc: 0]p: solve: 34404.7 [ms]
[OGL LOG][Proc: 0]p: copy_x_back: 1.201 [ms]
[OGL LOG][lduLduBase.H:330] 
Statistics:
	Time per iteration: 21983 [mu s]
	Time per residual norm calculation: 13012.000000 [mu s]
	Time per iteration and DOF: 2.747875 [ns]
	Retrieve results bandwidth 0.729000 [GByte/s]
[OGL LOG][Proc: 0]p: solve_multi_gpu: 34490.5 [ms]
BJcudaGKOCG:  Solving for p, Initial residual = 0.826165, Final residual = 9.7267e-05, No Iterations 1565
[INFO] SolveP: 34525.1 [ms]
time step continuity errors : sum local = 1.45438e-08, global = -5.28197e-21, cumulative = -7.77079e-21
[INFO] ContinuityError: 4.7 [ms]
[INFO] CorrectBoundary: 1.231 [ms]
[INFO] PISOStep: 34644.4 [ms]
[INFO] MatrixAssemblyPI: 64.585 [ms]
[INFO] AdjustPhi: 3.316 [ms]
[INFO] ConstrainPressure: 0.004 [ms]
[INFO] MatrixAssemblyPII: 16.787 [ms]
[OGL LOG][Proc: 0]: global_index_init: 0.069 [ms]
[OGL LOG][Proc: 0]p_local_coeffs: call_update: 0 [ms]
[OGL LOG][Proc: 0]p_non_local_coeffs: call_update: 0 [ms]
[OGL LOG][Proc: 0]p: update_local_matrix_data: 29.334 [ms]
[OGL LOG][Proc: 0]p: update_non_local_matrix_data: 0.604 [ms]
[OGL LOG][Proc: 0]p: regenerate_distributed_matrix: 56.765 [ms]
[OGL LOG][Proc: 0]p_matrix: call_update: 67.947 [ms]
[OGL LOG][Proc: 0]p_rhs: call_update: 0.336 [ms]
[OGL LOG][Preconditioner.H:121] Generate preconditioner BJ MaxBlockSize 1
[OGL LOG][Proc: 0]p: init_precond: 2.487 [ms]
[OGL LOG][StoppingCriterion.H:239] Creating stopping criterion with minIter 939 frequency 25
[OGL LOG][Proc: 0]p: generate_solver: 0.03 [ms]
[OGL LOG][Proc: 0]p: solve: 34527.3 [ms]
[OGL LOG][Proc: 0]p: copy_x_back: 1.191 [ms]
[OGL LOG][lduLduBase.H:330] 
Statistics:
	Time per iteration: 21908 [mu s]
	Time per residual norm calculation: 10653.000000 [mu s]
	Time per iteration and DOF: 2.738500 [ns]
	Retrieve results bandwidth 0.735000 [GByte/s]
[OGL LOG][Proc: 0]p: solve_multi_gpu: 34618.7 [ms]
BJcudaGKOCG:  Solving for p, Initial residual = 0.743832, Final residual = 6.91847e-05, No Iterations 1576
[INFO] SolveP: 34652.4 [ms]
time step continuity errors : sum local = 1.05974e-08, global = -5.43642e-21, cumulative = -1.32072e-20
[INFO] ContinuityError: 5.106 [ms]
[INFO] CorrectBoundary: 0.838 [ms]
[INFO] PISOStep: 34773.3 [ms]
[INFO] TimeStep: 69853.2 [ms]
ExecutionTime = 165.87 s  ClockTime = 185 s

Time = 0.00075

Courant Number mean: 0.023937 max: 0.470938
[INFO] MatrixAssemblyU: 59.087 [ms]
DILUPBiCGStab:  Solving for Ux, Initial residual = 0.054897, Final residual = 0.00298672, No Iterations 5
DILUPBiCGStab:  Solving for Uy, Initial residual = 0.182863, Final residual = 0.011215, No Iterations 5
DILUPBiCGStab:  Solving for Uz, Initial residual = 0.806273, Final residual = 0.0407612, No Iterations 5
[INFO] MomentumPredictor: 376.387 [ms]
[INFO] MatrixAssemblyPI: 64.074 [ms]
[INFO] AdjustPhi: 2.468 [ms]
[INFO] ConstrainPressure: 0.003 [ms]
[INFO] MatrixAssemblyPII: 15.588 [ms]
[OGL LOG][Proc: 0]: global_index_init: 0.085 [ms]
[OGL LOG][Proc: 0]p_local_coeffs: call_update: 0 [ms]
[OGL LOG][Proc: 0]p_non_local_coeffs: call_update: 0 [ms]
[OGL LOG][Proc: 0]p: update_local_matrix_data: 30.655 [ms]
[OGL LOG][Proc: 0]p: update_non_local_matrix_data: 0.638 [ms]
[OGL LOG][Proc: 0]p: regenerate_distributed_matrix: 58.823 [ms]
[OGL LOG][Proc: 0]p_matrix: call_update: 64.072 [ms]
[OGL LOG][Proc: 0]p_rhs: call_update: 2.102 [ms]
[OGL LOG][Preconditioner.H:121] Generate preconditioner BJ MaxBlockSize 1
[OGL LOG][Proc: 0]p: init_precond: 1.232 [ms]
[OGL LOG][StoppingCriterion.H:239] Creating stopping criterion with minIter 945 frequency 17
[OGL LOG][Proc: 0]p: generate_solver: 0.02 [ms]
[OGL LOG][Proc: 0]p: solve: 34422.8 [ms]
[OGL LOG][Proc: 0]p: copy_x_back: 1.158 [ms]
[OGL LOG][lduLduBase.H:330] 
Statistics:
	Time per iteration: 21995 [mu s]
	Time per residual norm calculation: 13174.000000 [mu s]
	Time per iteration and DOF: 2.749375 [ns]
	Retrieve results bandwidth 0.756000 [GByte/s]
[OGL LOG][Proc: 0]p: solve_multi_gpu: 34510.6 [ms]
BJcudaGKOCG:  Solving for p, Initial residual = 0.845629, Final residual = 9.12698e-05, No Iterations 1565
[INFO] SolveP: 34545.5 [ms]
time step continuity errors : sum local = 1.23371e-08, global = -4.429e-21, cumulative = -1.76362e-20
[INFO] ContinuityError: 4.647 [ms]
[INFO] CorrectBoundary: 0.912 [ms]
[INFO] PISOStep: 34662.7 [ms]
[INFO] MatrixAssemblyPI: 64.679 [ms]
[INFO] AdjustPhi: 3.19 [ms]
[INFO] ConstrainPressure: 0.005 [ms]
[INFO] MatrixAssemblyPII: 16.893 [ms]
[OGL LOG][Proc: 0]: global_index_init: 0.068 [ms]
[OGL LOG][Proc: 0]p_local_coeffs: call_update: 0 [ms]
[OGL LOG][Proc: 0]p_non_local_coeffs: call_update: 0 [ms]
[OGL LOG][Proc: 0]p: update_local_matrix_data: 30.502 [ms]
[OGL LOG][Proc: 0]p: update_non_local_matrix_data: 0.712 [ms]
[OGL LOG][Proc: 0]p: regenerate_distributed_matrix: 58.953 [ms]
[OGL LOG][Proc: 0]p_matrix: call_update: 68.172 [ms]
[OGL LOG][Proc: 0]p_rhs: call_update: 0.248 [ms]
[OGL LOG][Preconditioner.H:121] Generate preconditioner BJ MaxBlockSize 1
[OGL LOG][Proc: 0]p: init_precond: 1.27 [ms]
[OGL LOG][StoppingCriterion.H:239] Creating stopping criterion with minIter 939 frequency 25
[OGL LOG][Proc: 0]p: generate_solver: 0.018 [ms]
[OGL LOG][Proc: 0]p: solve: 34527.1 [ms]
[OGL LOG][Proc: 0]p: copy_x_back: 1.19 [ms]
[OGL LOG][lduLduBase.H:330] 
Statistics:
	Time per iteration: 21908 [mu s]
	Time per residual norm calculation: 11861.000000 [mu s]
	Time per iteration and DOF: 2.738500 [ns]
	Retrieve results bandwidth 0.736000 [GByte/s]
[OGL LOG][Proc: 0]p: solve_multi_gpu: 34617 [ms]
BJcudaGKOCG:  Solving for p, Initial residual = 0.801076, Final residual = 5.52481e-05, No Iterations 1576
[INFO] SolveP: 34651.7 [ms]
time step continuity errors : sum local = 7.22665e-09, global = -6.88917e-21, cumulative = -2.45254e-20
[INFO] ContinuityError: 5.038 [ms]
[INFO] CorrectBoundary: 0.983 [ms]
[INFO] PISOStep: 34771.4 [ms]
[INFO] TimeStep: 69876.5 [ms]
ExecutionTime = 235.37 s  ClockTime = 254 s

Time = 0.001

Courant Number mean: 0.0287945 max: 0.467135
[INFO] MatrixAssemblyU: 59.158 [ms]
DILUPBiCGStab:  Solving for Ux, Initial residual = 0.034959, Final residual = 0.00199715, No Iterations 5
DILUPBiCGStab:  Solving for Uy, Initial residual = 0.128925, Final residual = 0.0069128, No Iterations 5
DILUPBiCGStab:  Solving for Uz, Initial residual = 0.593458, Final residual = 0.0256108, No Iterations 5
[INFO] MomentumPredictor: 371.43 [ms]
[INFO] MatrixAssemblyPI: 64.947 [ms]
[INFO] AdjustPhi: 3.688 [ms]
[INFO] ConstrainPressure: 0.003 [ms]
[INFO] MatrixAssemblyPII: 16.032 [ms]
[OGL LOG][Proc: 0]: global_index_init: 0.071 [ms]
[OGL LOG][Proc: 0]p_local_coeffs: call_update: 0 [ms]
[OGL LOG][Proc: 0]p_non_local_coeffs: call_update: 0 [ms]
[OGL LOG][Proc: 0]p: update_local_matrix_data: 30.799 [ms]
[OGL LOG][Proc: 0]p: update_non_local_matrix_data: 0.658 [ms]
[OGL LOG][Proc: 0]p: regenerate_distributed_matrix: 53.895 [ms]
[OGL LOG][Proc: 0]p_matrix: call_update: 64.206 [ms]
[OGL LOG][Proc: 0]p_rhs: call_update: 0.291 [ms]
[OGL LOG][Preconditioner.H:121] Generate preconditioner BJ MaxBlockSize 1
[OGL LOG][Proc: 0]p: init_precond: 3.806 [ms]
[OGL LOG][StoppingCriterion.H:239] Creating stopping criterion with minIter 945 frequency 25
[OGL LOG][Proc: 0]p: generate_solver: 0.025 [ms]
[OGL LOG][Proc: 0]p: solve: 20695.1 [ms]
[OGL LOG][Proc: 0]p: copy_x_back: 1.279 [ms]
[OGL LOG][lduLduBase.H:330] 
Statistics:
	Time per iteration: 21761 [mu s]
	Time per residual norm calculation: 11836.000000 [mu s]
	Time per iteration and DOF: 2.720125 [ns]
	Retrieve results bandwidth 0.684000 [GByte/s]
[OGL LOG][Proc: 0]p: solve_multi_gpu: 20784 [ms]
BJcudaGKOCG:  Solving for p, Initial residual = 0.768663, Final residual = 3.49967e-05, No Iterations 951
[INFO] SolveP: 20819.3 [ms]
time step continuity errors : sum local = 4.62297e-09, global = -7.44886e-21, cumulative = -3.19742e-20
[INFO] ContinuityError: 4.856 [ms]
[INFO] CorrectBoundary: 0.988 [ms]
[INFO] PISOStep: 20937.7 [ms]
[INFO] MatrixAssemblyPI: 65.333 [ms]
[INFO] AdjustPhi: 2.294 [ms]
[INFO] ConstrainPressure: 0.003 [ms]
[INFO] MatrixAssemblyPII: 16.426 [ms]
[OGL LOG][Proc: 0]: global_index_init: 0.082 [ms]
[OGL LOG][Proc: 0]p_local_coeffs: call_update: 0 [ms]
[OGL LOG][Proc: 0]p_non_local_coeffs: call_update: 0 [ms]
[OGL LOG][Proc: 0]p: update_local_matrix_data: 29.16 [ms]
[OGL LOG][Proc: 0]p: update_non_local_matrix_data: 0.691 [ms]
[OGL LOG][Proc: 0]p: regenerate_distributed_matrix: 55.47 [ms]
[OGL LOG][Proc: 0]p_matrix: call_update: 66.001 [ms]
[OGL LOG][Proc: 0]p_rhs: call_update: 0.297 [ms]
[OGL LOG][Preconditioner.H:121] Generate preconditioner BJ MaxBlockSize 1
[OGL LOG][Proc: 0]p: init_precond: 2.954 [ms]
[OGL LOG][StoppingCriterion.H:239] Creating stopping criterion with minIter 570 frequency 19
[OGL LOG][Proc: 0]p: generate_solver: 0.025 [ms]
[OGL LOG][Proc: 0]p: solve: 16698.7 [ms]
[OGL LOG][Proc: 0]p: copy_x_back: 1.203 [ms]
[OGL LOG][lduLduBase.H:330] 
Statistics:
	Time per iteration: 21943 [mu s]
	Time per residual norm calculation: 11841.000000 [mu s]
	Time per iteration and DOF: 2.742875 [ns]
	Retrieve results bandwidth 0.728000 [GByte/s]
[OGL LOG][Proc: 0]p: solve_multi_gpu: 16789.9 [ms]
BJcudaGKOCG:  Solving for p, Initial residual = 0.699765, Final residual = 7.94174e-05, No Iterations 761
[INFO] SolveP: 16823.5 [ms]
time step continuity errors : sum local = 9.96119e-09, global = -3.9389e-21, cumulative = -3.59131e-20
[INFO] ContinuityError: 4.63 [ms]
[INFO] CorrectBoundary: 0.764 [ms]
[INFO] PISOStep: 16942.8 [ms]
[INFO] TimeStep: 38318.6 [ms]
ExecutionTime = 273.49 s  ClockTime = 293 s

Time = 0.00125

Courant Number mean: 0.0329187 max: 0.472106
[INFO] MatrixAssemblyU: 58.209 [ms]
DILUPBiCGStab:  Solving for Ux, Initial residual = 0.0273767, Final residual = 0.00144388, No Iterations 5
DILUPBiCGStab:  Solving for Uy, Initial residual = 0.0822899, Final residual = 0.00533846, No Iterations 5
DILUPBiCGStab:  Solving for Uz, Initial residual = 0.434327, Final residual = 0.0181243, No Iterations 5
[INFO] MomentumPredictor: 369.829 [ms]
[INFO] MatrixAssemblyPI: 65.005 [ms]
[INFO] AdjustPhi: 3.26 [ms]
[INFO] ConstrainPressure: 0.003 [ms]
[INFO] MatrixAssemblyPII: 15.581 [ms]
[OGL LOG][Proc: 0]: global_index_init: 0.089 [ms]
[OGL LOG][Proc: 0]p_local_coeffs: call_update: 0 [ms]
[OGL LOG][Proc: 0]p_non_local_coeffs: call_update: 0 [ms]
[OGL LOG][Proc: 0]p: update_local_matrix_data: 29.541 [ms]
[OGL LOG][Proc: 0]p: update_non_local_matrix_data: 0.648 [ms]
[OGL LOG][Proc: 0]p: regenerate_distributed_matrix: 53.695 [ms]
[OGL LOG][Proc: 0]p_matrix: call_update: 64.312 [ms]
[OGL LOG][Proc: 0]p_rhs: call_update: 0.264 [ms]
[OGL LOG][Preconditioner.H:121] Generate preconditioner BJ MaxBlockSize 1
[OGL LOG][Proc: 0]p: init_precond: 2.759 [ms]
[OGL LOG][StoppingCriterion.H:239] Creating stopping criterion with minIter 456 frequency 17
[OGL LOG][Proc: 0]p: generate_solver: 0.032 [ms]
[OGL LOG][Proc: 0]p: solve: 16515.8 [ms]
[OGL LOG][Proc: 0]p: copy_x_back: 1.269 [ms]
[OGL LOG][lduLduBase.H:330] 
Statistics:
	Time per iteration: 22050 [mu s]
	Time per residual norm calculation: 11850.000000 [mu s]
	Time per iteration and DOF: 2.756250 [ns]
	Retrieve results bandwidth 0.690000 [GByte/s]
[OGL LOG][Proc: 0]p: solve_multi_gpu: 16605.8 [ms]
BJcudaGKOCG:  Solving for p, Initial residual = 0.773309, Final residual = 6.74456e-05, No Iterations 749
[INFO] SolveP: 16640.2 [ms]
time step continuity errors : sum local = 6.85623e-09, global = -7.14786e-21, cumulative = -4.3061e-20
[INFO] ContinuityError: 4.741 [ms]
[INFO] CorrectBoundary: 0.856 [ms]
[INFO] PISOStep: 16760.8 [ms]
[INFO] MatrixAssemblyPI: 64.011 [ms]
[INFO] AdjustPhi: 2.672 [ms]
[INFO] ConstrainPressure: 0.004 [ms]
[INFO] MatrixAssemblyPII: 16.412 [ms]
[OGL LOG][Proc: 0]: global_index_init: 0.07 [ms]
[OGL LOG][Proc: 0]p_local_coeffs: call_update: 0 [ms]
[OGL LOG][Proc: 0]p_non_local_coeffs: call_update: 0 [ms]
[OGL LOG][Proc: 0]p: update_local_matrix_data: 30.429 [ms]
[OGL LOG][Proc: 0]p: update_non_local_matrix_data: 0.703 [ms]
[OGL LOG][Proc: 0]p: regenerate_distributed_matrix: 55.254 [ms]
[OGL LOG][Proc: 0]p_matrix: call_update: 64.907 [ms]
[OGL LOG][Proc: 0]p_rhs: call_update: 0.271 [ms]
[OGL LOG][Preconditioner.H:121] Generate preconditioner BJ MaxBlockSize 1
[OGL LOG][Proc: 0]p: init_precond: 3.646 [ms]
[OGL LOG][StoppingCriterion.H:239] Creating stopping criterion with minIter 449 frequency 17
[OGL LOG][Proc: 0]p: generate_solver: 0.032 [ms]
[OGL LOG][Proc: 0]p: solve: 16519.6 [ms]
[OGL LOG][Proc: 0]p: copy_x_back: 0.827 [ms]
[OGL LOG][lduLduBase.H:330] 
Statistics:
	Time per iteration: 22055 [mu s]
	Time per residual norm calculation: 13477.000000 [mu s]
	Time per iteration and DOF: 2.756875 [ns]
	Retrieve results bandwidth 1.059000 [GByte/s]
[OGL LOG][Proc: 0]p: solve_multi_gpu: 16606.4 [ms]
BJcudaGKOCG:  Solving for p, Initial residual = 0.722901, Final residual = 6.46433e-05, No Iterations 749
[INFO] SolveP: 16641.2 [ms]
time step continuity errors : sum local = 6.44625e-09, global = -6.19907e-21, cumulative = -4.92601e-20
[INFO] ContinuityError: 4.101 [ms]
[INFO] CorrectBoundary: 0.778 [ms]
[INFO] PISOStep: 16759.4 [ms]
[INFO] TimeStep: 33956.3 [ms]
ExecutionTime = 307.26 s  ClockTime = 327 s

Time = 0.0015

Courant Number mean: 0.0362124 max: 0.475106
[INFO] MatrixAssemblyU: 59.607 [ms]
DILUPBiCGStab:  Solving for Ux, Initial residual = 0.0207799, Final residual = 0.00103615, No Iterations 5
DILUPBiCGStab:  Solving for Uy, Initial residual = 0.0664917, Final residual = 0.00355701, No Iterations 5
DILUPBiCGStab:  Solving for Uz, Initial residual = 0.316886, Final residual = 0.0134895, No Iterations 5
[INFO] MomentumPredictor: 368.384 [ms]
[INFO] MatrixAssemblyPI: 65.4 [ms]
[INFO] AdjustPhi: 4.399 [ms]
[INFO] ConstrainPressure: 0.004 [ms]
[INFO] MatrixAssemblyPII: 15.376 [ms]
[OGL LOG][Proc: 0]: global_index_init: 0.066 [ms]
[OGL LOG][Proc: 0]p_local_coeffs: call_update: 0 [ms]
[OGL LOG][Proc: 0]p_non_local_coeffs: call_update: 0 [ms]
[OGL LOG][Proc: 0]p: update_local_matrix_data: 31.689 [ms]
[OGL LOG][Proc: 0]p: update_non_local_matrix_data: 0.664 [ms]
[OGL LOG][Proc: 0]p: regenerate_distributed_matrix: 51.18 [ms]
[OGL LOG][Proc: 0]p_matrix: call_update: 63.687 [ms]
[OGL LOG][Proc: 0]p_rhs: call_update: 0.646 [ms]
[OGL LOG][Preconditioner.H:121] Generate preconditioner BJ MaxBlockSize 1
[OGL LOG][Proc: 0]p: init_precond: 3.6 [ms]
[OGL LOG][StoppingCriterion.H:239] Creating stopping criterion with minIter 449 frequency 17
[OGL LOG][Proc: 0]p: generate_solver: 0.03 [ms]
[OGL LOG][Proc: 0]p: solve: 16520.6 [ms]
[OGL LOG][Proc: 0]p: copy_x_back: 1.208 [ms]
[OGL LOG][lduLduBase.H:330] 
Statistics:
	Time per iteration: 22056 [mu s]
	Time per residual norm calculation: 13048.000000 [mu s]
	Time per iteration and DOF: 2.757000 [ns]
	Retrieve results bandwidth 0.725000 [GByte/s]
[OGL LOG][Proc: 0]p: solve_multi_gpu: 16610.9 [ms]
BJcudaGKOCG:  Solving for p, Initial residual = 0.68441, Final residual = 6.59528e-05, No Iterations 749
[INFO] SolveP: 16646.9 [ms]
time step continuity errors : sum local = 6.718e-09, global = -7.01105e-21, cumulative = -5.62711e-20
[INFO] ContinuityError: 4.941 [ms]
[INFO] CorrectBoundary: 0.935 [ms]
[INFO] PISOStep: 16766.5 [ms]
[INFO] MatrixAssemblyPI: 64.61 [ms]
[INFO] AdjustPhi: 2.333 [ms]
[INFO] ConstrainPressure: 0.002 [ms]
[INFO] MatrixAssemblyPII: 16.778 [ms]
[OGL LOG][Proc: 0]: global_index_init: 0.066 [ms]
[OGL LOG][Proc: 0]p_local_coeffs: call_update: 0 [ms]
[OGL LOG][Proc: 0]p_non_local_coeffs: call_update: 0 [ms]
[OGL LOG][Proc: 0]p: update_local_matrix_data: 29.893 [ms]
[OGL LOG][Proc: 0]p: update_non_local_matrix_data: 0.651 [ms]
[OGL LOG][Proc: 0]p: regenerate_distributed_matrix: 55.477 [ms]
[OGL LOG][Proc: 0]p_matrix: call_update: 65.845 [ms]
[OGL LOG][Proc: 0]p_rhs: call_update: 0.304 [ms]
[OGL LOG][Preconditioner.H:121] Generate preconditioner BJ MaxBlockSize 1
[OGL LOG][Proc: 0]p: init_precond: 3.805 [ms]
[OGL LOG][StoppingCriterion.H:239] Creating stopping criterion with minIter 449 frequency 17
[OGL LOG][Proc: 0]p: generate_solver: 0.027 [ms]
[OGL LOG][Proc: 0]p: solve: 16515.9 [ms]
[OGL LOG][Proc: 0]p: copy_x_back: 0.652 [ms]
[OGL LOG][lduLduBase.H:330] 
Statistics:
	Time per iteration: 22050 [mu s]
	Time per residual norm calculation: 12469.000000 [mu s]
	Time per iteration and DOF: 2.756250 [ns]
	Retrieve results bandwidth 1.343000 [GByte/s]
[OGL LOG][Proc: 0]p: solve_multi_gpu: 16605.6 [ms]
BJcudaGKOCG:  Solving for p, Initial residual = 0.624325, Final residual = 5.79313e-05, No Iterations 749
[INFO] SolveP: 16639.2 [ms]
time step continuity errors : sum local = 5.63177e-09, global = -6.22076e-21, cumulative = -6.24919e-20
[INFO] ContinuityError: 8.004 [ms]
[INFO] CorrectBoundary: 2.225 [ms]
[INFO] PISOStep: 16757.3 [ms]
[INFO] TimeStep: 33960 [ms]
ExecutionTime = 341.04 s  ClockTime = 361 s

Time = 0.00175

Courant Number mean: 0.0391254 max: 0.477267
[INFO] MatrixAssemblyU: 52.48 [ms]
DILUPBiCGStab:  Solving for Ux, Initial residual = 0.0177506, Final residual = 0.000806672, No Iterations 5
DILUPBiCGStab:  Solving for Uy, Initial residual = 0.0500005, Final residual = 0.00275461, No Iterations 5
DILUPBiCGStab:  Solving for Uz, Initial residual = 0.244843, Final residual = 0.0117629, No Iterations 5
[INFO] MomentumPredictor: 387.415 [ms]
[INFO] MatrixAssemblyPI: 66.773 [ms]
[INFO] AdjustPhi: 2.359 [ms]
[INFO] ConstrainPressure: 0.003 [ms]
[INFO] MatrixAssemblyPII: 16.046 [ms]
[OGL LOG][Proc: 0]: global_index_init: 0.11 [ms]
[OGL LOG][Proc: 0]p_local_coeffs: call_update: 0.001 [ms]
[OGL LOG][Proc: 0]p_non_local_coeffs: call_update: 0 [ms]
[OGL LOG][Proc: 0]p: update_local_matrix_data: 30.399 [ms]
[OGL LOG][Proc: 0]p: update_non_local_matrix_data: 0.668 [ms]
[OGL LOG][Proc: 0]p: regenerate_distributed_matrix: 54.882 [ms]
[OGL LOG][Proc: 0]p_matrix: call_update: 65.486 [ms]
[OGL LOG][Proc: 0]p_rhs: call_update: 0.367 [ms]
[OGL LOG][Preconditioner.H:121] Generate preconditioner BJ MaxBlockSize 1
[OGL LOG][Proc: 0]p: init_precond: 1.387 [ms]
[OGL LOG][StoppingCriterion.H:239] Creating stopping criterion with minIter 449 frequency 17
[OGL LOG][Proc: 0]p: generate_solver: 0.035 [ms]
[OGL LOG][Proc: 0]p: solve: 16522.3 [ms]
[OGL LOG][Proc: 0]p: copy_x_back: 1.002 [ms]
[OGL LOG][lduLduBase.H:330] 
Statistics:
	Time per iteration: 22059 [mu s]
	Time per residual norm calculation: 12878.000000 [mu s]
	Time per iteration and DOF: 2.757375 [ns]
	Retrieve results bandwidth 0.874000 [GByte/s]
[OGL LOG][Proc: 0]p: solve_multi_gpu: 16611.9 [ms]
BJcudaGKOCG:  Solving for p, Initial residual = 0.681198, Final residual = 7.53922e-05, No Iterations 749
[INFO] SolveP: 16646.7 [ms]
time step continuity errors : sum local = 6.58624e-09, global = -9.48197e-21, cumulative = -7.19739e-20
[INFO] ContinuityError: 7.351 [ms]
[INFO] CorrectBoundary: 1.421 [ms]
[INFO] PISOStep: 16764.7 [ms]
[INFO] MatrixAssemblyPI: 64.4 [ms]
[INFO] AdjustPhi: 5.234 [ms]
[INFO] ConstrainPressure: 0.004 [ms]
[INFO] MatrixAssemblyPII: 16.414 [ms]
[OGL LOG][Proc: 0]: global_index_init: 0.069 [ms]
[OGL LOG][Proc: 0]p_local_coeffs: call_update: 0 [ms]
[OGL LOG][Proc: 0]p_non_local_coeffs: call_update: 0 [ms]
[OGL LOG][Proc: 0]p: update_local_matrix_data: 28.641 [ms]
[OGL LOG][Proc: 0]p: update_non_local_matrix_data: 0.631 [ms]
[OGL LOG][Proc: 0]p: regenerate_distributed_matrix: 66.564 [ms]
[OGL LOG][Proc: 0]p_matrix: call_update: 71.026 [ms]
[OGL LOG][Proc: 0]p_rhs: call_update: 2.385 [ms]
[OGL LOG][Preconditioner.H:121] Generate preconditioner BJ MaxBlockSize 1
[OGL LOG][Proc: 0]p: init_precond: 1.428 [ms]
[OGL LOG][StoppingCriterion.H:239] Creating stopping criterion with minIter 449 frequency 17
[OGL LOG][Proc: 0]p: generate_solver: 0.018 [ms]
[OGL LOG][Proc: 0]p: solve: 16142.4 [ms]
[OGL LOG][Proc: 0]p: copy_x_back: 1.294 [ms]
[OGL LOG][lduLduBase.H:330] 
Statistics:
	Time per iteration: 22052 [mu s]
	Time per residual norm calculation: 11894.000000 [mu s]
	Time per iteration and DOF: 2.756500 [ns]
	Retrieve results bandwidth 0.676000 [GByte/s]
[OGL LOG][Proc: 0]p: solve_multi_gpu: 16236 [ms]
BJcudaGKOCG:  Solving for p, Initial residual = 0.625815, Final residual = 9.61114e-05, No Iterations 732
[INFO] SolveP: 16268.9 [ms]
time step continuity errors : sum local = 7.66512e-09, global = -8.89769e-21, cumulative = -8.08716e-20
[INFO] ContinuityError: 4.83 [ms]
[INFO] CorrectBoundary: 0.709 [ms]
[INFO] PISOStep: 16389.1 [ms]
[INFO] TimeStep: 33601.2 [ms]
ExecutionTime = 374.45 s  ClockTime = 394 s

Time = 0.002

Courant Number mean: 0.0416556 max: 0.478872
[INFO] MatrixAssemblyU: 57.733 [ms]
DILUPBiCGStab:  Solving for Ux, Initial residual = 0.0146527, Final residual = 0.000624395, No Iterations 5
DILUPBiCGStab:  Solving for Uy, Initial residual = 0.0425321, Final residual = 0.00205447, No Iterations 5
DILUPBiCGStab:  Solving for Uz, Initial residual = 0.194365, Final residual = 0.00966137, No Iterations 5
[INFO] MomentumPredictor: 373.247 [ms]
[INFO] MatrixAssemblyPI: 64.832 [ms]
[INFO] AdjustPhi: 2.308 [ms]
[INFO] ConstrainPressure: 0.003 [ms]
[INFO] MatrixAssemblyPII: 14.629 [ms]
[OGL LOG][Proc: 0]: global_index_init: 0.062 [ms]
[OGL LOG][Proc: 0]p_local_coeffs: call_update: 0 [ms]
[OGL LOG][Proc: 0]p_non_local_coeffs: call_update: 0 [ms]
[OGL LOG][Proc: 0]p: update_local_matrix_data: 30.242 [ms]
[OGL LOG][Proc: 0]p: update_non_local_matrix_data: 0.649 [ms]
[OGL LOG][Proc: 0]p: regenerate_distributed_matrix: 55.36 [ms]
[OGL LOG][Proc: 0]p_matrix: call_update: 65.351 [ms]
[OGL LOG][Proc: 0]p_rhs: call_update: 0.219 [ms]
[OGL LOG][Preconditioner.H:121] Generate preconditioner BJ MaxBlockSize 1
[OGL LOG][Proc: 0]p: init_precond: 1.745 [ms]
[OGL LOG][StoppingCriterion.H:239] Creating stopping criterion with minIter 439 frequency 17
[OGL LOG][Proc: 0]p: generate_solver: 0.02 [ms]
[OGL LOG][Proc: 0]p: solve: 33634.8 [ms]
[OGL LOG][Proc: 0]p: copy_x_back: 1.153 [ms]
[OGL LOG][lduLduBase.H:330] 
Statistics:
	Time per iteration: 22215 [mu s]
	Time per residual norm calculation: 13455.000000 [mu s]
	Time per iteration and DOF: 2.776875 [ns]
	Retrieve results bandwidth 0.759000 [GByte/s]
[OGL LOG][Proc: 0]p: solve_multi_gpu: 33724.8 [ms]
BJcudaGKOCG:  Solving for p, Initial residual = 0.591723, Final residual = 8.29567e-05, No Iterations 1514
[INFO] SolveP: 33759.4 [ms]
time step continuity errors : sum local = 6.21548e-09, global = -7.8496e-21, cumulative = -8.87212e-20
[INFO] ContinuityError: 4.971 [ms]
[INFO] CorrectBoundary: 1.071 [ms]
[INFO] PISOStep: 33877.2 [ms]
[INFO] MatrixAssemblyPI: 64.497 [ms]
[INFO] AdjustPhi: 2.527 [ms]
[INFO] ConstrainPressure: 0.004 [ms]
[INFO] MatrixAssemblyPII: 16.845 [ms]
[OGL LOG][Proc: 0]: global_index_init: 0.064 [ms]
[OGL LOG][Proc: 0]p_local_coeffs: call_update: 0 [ms]
[OGL LOG][Proc: 0]p_non_local_coeffs: call_update: 0 [ms]
[OGL LOG][Proc: 0]p: update_local_matrix_data: 28.81 [ms]
[OGL LOG][Proc: 0]p: update_non_local_matrix_data: 0.689 [ms]
[OGL LOG][Proc: 0]p: regenerate_distributed_matrix: 59.264 [ms]
[OGL LOG][Proc: 0]p_matrix: call_update: 71.407 [ms]
[OGL LOG][Proc: 0]p_rhs: call_update: 0.286 [ms]
[OGL LOG][Preconditioner.H:121] Generate preconditioner BJ MaxBlockSize 1
[OGL LOG][Proc: 0]p: init_precond: 1.723 [ms]
[OGL LOG][StoppingCriterion.H:239] Creating stopping criterion with minIter 908 frequency 24
[OGL LOG][Proc: 0]p: generate_solver: 0.021 [ms]
[OGL LOG][Proc: 0]p: solve: 33166.9 [ms]
[OGL LOG][Proc: 0]p: copy_x_back: 1.28 [ms]
[OGL LOG][lduLduBase.H:330] 
Statistics:
	Time per iteration: 21921 [mu s]
	Time per residual norm calculation: 12288.000000 [mu s]
	Time per iteration and DOF: 2.740125 [ns]
	Retrieve results bandwidth 0.684000 [GByte/s]
[OGL LOG][Proc: 0]p: solve_multi_gpu: 33264.2 [ms]
BJcudaGKOCG:  Solving for p, Initial residual = 0.538656, Final residual = 7.94496e-05, No Iterations 1513
[INFO] SolveP: 33297.5 [ms]
time step continuity errors : sum local = 5.94058e-09, global = -1.33759e-20, cumulative = -1.02097e-19
[INFO] ContinuityError: 4.719 [ms]
[INFO] CorrectBoundary: 0.548 [ms]
[INFO] PISOStep: 33416.3 [ms]
[INFO] TimeStep: 67734.2 [ms]
ExecutionTime = 441.83 s  ClockTime = 462 s

Time = 0.00225

Courant Number mean: 0.043948 max: 0.480162
[INFO] MatrixAssemblyU: 58.474 [ms]
DILUPBiCGStab:  Solving for Ux, Initial residual = 0.0128815, Final residual = 0.000498768, No Iterations 5
DILUPBiCGStab:  Solving for Uy, Initial residual = 0.0345823, Final residual = 0.00155764, No Iterations 5
DILUPBiCGStab:  Solving for Uz, Initial residual = 0.158554, Final residual = 0.0085774, No Iterations 5
[INFO] MomentumPredictor: 367.42 [ms]
[INFO] MatrixAssemblyPI: 65.098 [ms]
[INFO] AdjustPhi: 2.292 [ms]
[INFO] ConstrainPressure: 0.003 [ms]
[INFO] MatrixAssemblyPII: 15.674 [ms]
[OGL LOG][Proc: 0]: global_index_init: 0.081 [ms]
[OGL LOG][Proc: 0]p_local_coeffs: call_update: 0.001 [ms]
[OGL LOG][Proc: 0]p_non_local_coeffs: call_update: 0 [ms]
[OGL LOG][Proc: 0]p: update_local_matrix_data: 30.434 [ms]
[OGL LOG][Proc: 0]p: update_non_local_matrix_data: 0.647 [ms]
[OGL LOG][Proc: 0]p: regenerate_distributed_matrix: 55.372 [ms]
[OGL LOG][Proc: 0]p_matrix: call_update: 66.556 [ms]
[OGL LOG][Proc: 0]p_rhs: call_update: 0.543 [ms]
[OGL LOG][Preconditioner.H:121] Generate preconditioner BJ MaxBlockSize 1
[OGL LOG][Proc: 0]p: init_precond: 1.422 [ms]
[OGL LOG][StoppingCriterion.H:239] Creating stopping criterion with minIter 907 frequency 24
[OGL LOG][Proc: 0]p: generate_solver: 0.019 [ms]
[OGL LOG][Proc: 0]p: solve: 33168.6 [ms]
[OGL LOG][Proc: 0]p: copy_x_back: 1.273 [ms]
[OGL LOG][lduLduBase.H:330] 
Statistics:
	Time per iteration: 21922 [mu s]
	Time per residual norm calculation: 11864.000000 [mu s]
	Time per iteration and DOF: 2.740250 [ns]
	Retrieve results bandwidth 0.688000 [GByte/s]
[OGL LOG][Proc: 0]p: solve_multi_gpu: 33256.9 [ms]
BJcudaGKOCG:  Solving for p, Initial residual = 0.580358, Final residual = 5.86255e-05, No Iterations 1513
[INFO] SolveP: 33292.7 [ms]
time step continuity errors : sum local = 3.79961e-09, global = -1.15918e-20, cumulative = -1.13689e-19
[INFO] ContinuityError: 5.128 [ms]
[INFO] CorrectBoundary: 1.235 [ms]
[INFO] PISOStep: 33410.5 [ms]
[INFO] MatrixAssemblyPI: 64.343 [ms]
[INFO] AdjustPhi: 2.394 [ms]
[INFO] ConstrainPressure: 0.004 [ms]
[INFO] MatrixAssemblyPII: 17.071 [ms]
[OGL LOG][Proc: 0]: global_index_init: 0.088 [ms]
[OGL LOG][Proc: 0]p_local_coeffs: call_update: 0 [ms]
[OGL LOG][Proc: 0]p_non_local_coeffs: call_update: 0 [ms]
[OGL LOG][Proc: 0]p: update_local_matrix_data: 28.779 [ms]
[OGL LOG][Proc: 0]p: update_non_local_matrix_data: 0.671 [ms]
[OGL LOG][Proc: 0]p: regenerate_distributed_matrix: 55.863 [ms]
[OGL LOG][Proc: 0]p_matrix: call_update: 65.97 [ms]
[OGL LOG][Proc: 0]p_rhs: call_update: 0.234 [ms]
[OGL LOG][Preconditioner.H:121] Generate preconditioner BJ MaxBlockSize 1
[OGL LOG][Proc: 0]p: init_precond: 1.915 [ms]
[OGL LOG][StoppingCriterion.H:239] Creating stopping criterion with minIter 907 frequency 24
[OGL LOG][Proc: 0]p: generate_solver: 0.021 [ms]
[OGL LOG][Proc: 0]p: solve: 32636.8 [ms]
[OGL LOG][Proc: 0]p: copy_x_back: 1.222 [ms]
[OGL LOG][lduLduBase.H:330] 
Statistics:
	Time per iteration: 21918 [mu s]
	Time per residual norm calculation: 11700.000000 [mu s]
	Time per iteration and DOF: 2.739750 [ns]
	Retrieve results bandwidth 0.716000 [GByte/s]
[OGL LOG][Proc: 0]p: solve_multi_gpu: 32726.9 [ms]
BJcudaGKOCG:  Solving for p, Initial residual = 0.526061, Final residual = 9.55009e-05, No Iterations 1489
[INFO] SolveP: 32760.4 [ms]
time step continuity errors : sum local = 6.18324e-09, global = -1.2018e-20, cumulative = -1.25707e-19
[INFO] ContinuityError: 4.903 [ms]
[INFO] CorrectBoundary: 0.624 [ms]
[INFO] PISOStep: 32879 [ms]
[INFO] TimeStep: 66724 [ms]
ExecutionTime = 508.19 s  ClockTime = 529 s

Time = 0.0025

Courant Number mean: 0.0460126 max: 0.481204
[INFO] MatrixAssemblyU: 58.3 [ms]
DILUPBiCGStab:  Solving for Ux, Initial residual = 0.0111273, Final residual = 0.000406051, No Iterations 5
DILUPBiCGStab:  Solving for Uy, Initial residual = 0.0302616, Final residual = 0.00123809, No Iterations 5
DILUPBiCGStab:  Solving for Uz, Initial residual = 0.128913, Final residual = 0.0072031, No Iterations 5
[INFO] MomentumPredictor: 373.581 [ms]
[INFO] MatrixAssemblyPI: 64.649 [ms]
[INFO] AdjustPhi: 5.742 [ms]
[INFO] ConstrainPressure: 0.004 [ms]
[INFO] MatrixAssemblyPII: 15.567 [ms]
[OGL LOG][Proc: 0]: global_index_init: 0.07 [ms]
[OGL LOG][Proc: 0]p_local_coeffs: call_update: 0 [ms]
[OGL LOG][Proc: 0]p_non_local_coeffs: call_update: 0 [ms]
[OGL LOG][Proc: 0]p: update_local_matrix_data: 30.697 [ms]
[OGL LOG][Proc: 0]p: update_non_local_matrix_data: 0.726 [ms]
[OGL LOG][Proc: 0]p: regenerate_distributed_matrix: 57.081 [ms]
[OGL LOG][Proc: 0]p_matrix: call_update: 65.762 [ms]
[OGL LOG][Proc: 0]p_rhs: call_update: 0.232 [ms]
[OGL LOG][Preconditioner.H:121] Generate preconditioner BJ MaxBlockSize 1
[OGL LOG][Proc: 0]p: init_precond: 3.658 [ms]
[OGL LOG][StoppingCriterion.H:239] Creating stopping criterion with minIter 893 frequency 24
[OGL LOG][Proc: 0]p: generate_solver: 0.03 [ms]
[OGL LOG][Proc: 0]p: solve: 33169.1 [ms]
[OGL LOG][Proc: 0]p: copy_x_back: 1.187 [ms]
[OGL LOG][lduLduBase.H:330] 
Statistics:
	Time per iteration: 21922 [mu s]
	Time per residual norm calculation: 12553.000000 [mu s]
	Time per iteration and DOF: 2.740250 [ns]
	Retrieve results bandwidth 0.737000 [GByte/s]
[OGL LOG][Proc: 0]p: solve_multi_gpu: 33260.4 [ms]
BJcudaGKOCG:  Solving for p, Initial residual = 0.505134, Final residual = 6.36079e-05, No Iterations 1513
[INFO] SolveP: 33295.3 [ms]
time step continuity errors : sum local = 4.01048e-09, global = -1.12488e-20, cumulative = -1.36956e-19
[INFO] ContinuityError: 4.495 [ms]
[INFO] CorrectBoundary: 0.92 [ms]
[INFO] PISOStep: 33417.9 [ms]
[INFO] MatrixAssemblyPI: 64.83 [ms]
[INFO] AdjustPhi: 2.342 [ms]
[INFO] ConstrainPressure: 0.003 [ms]
[INFO] MatrixAssemblyPII: 16.827 [ms]
[OGL LOG][Proc: 0]: global_index_init: 0.075 [ms]
[OGL LOG][Proc: 0]p_local_coeffs: call_update: 0.001 [ms]
[OGL LOG][Proc: 0]p_non_local_coeffs: call_update: 0 [ms]
[OGL LOG][Proc: 0]p: update_local_matrix_data: 29.657 [ms]
[OGL LOG][Proc: 0]p: update_non_local_matrix_data: 0.643 [ms]
[OGL LOG][Proc: 0]p: regenerate_distributed_matrix: 53.633 [ms]
[OGL LOG][Proc: 0]p_matrix: call_update: 65.795 [ms]
[OGL LOG][Proc: 0]p_rhs: call_update: 0.526 [ms]
[OGL LOG][Preconditioner.H:121] Generate preconditioner BJ MaxBlockSize 1
[OGL LOG][Proc: 0]p: init_precond: 1.39 [ms]
[OGL LOG][StoppingCriterion.H:239] Creating stopping criterion with minIter 907 frequency 24
[OGL LOG][Proc: 0]p: generate_solver: 0.021 [ms]
[OGL LOG][Proc: 0]p: solve: 32636.3 [ms]
[OGL LOG][Proc: 0]p: copy_x_back: 1.215 [ms]
[OGL LOG][lduLduBase.H:330] 
Statistics:
	Time per iteration: 21918 [mu s]
	Time per residual norm calculation: 11893.000000 [mu s]
	Time per iteration and DOF: 2.739750 [ns]
	Retrieve results bandwidth 0.720000 [GByte/s]
[OGL LOG][Proc: 0]p: solve_multi_gpu: 32725.2 [ms]
BJcudaGKOCG:  Solving for p, Initial residual = 0.457651, Final residual = 9.49421e-05, No Iterations 1489
[INFO] SolveP: 32759.3 [ms]
time step continuity errors : sum local = 5.96388e-09, global = -8.59051e-21, cumulative = -1.45546e-19
[INFO] ContinuityError: 5.027 [ms]
[INFO] CorrectBoundary: 0.942 [ms]
[INFO] PISOStep: 32877.7 [ms]
[INFO] TimeStep: 66735.4 [ms]
ExecutionTime = 574.56 s  ClockTime = 595 s

Time = 0.00275

Courant Number mean: 0.0479123 max: 0.482076
[INFO] MatrixAssemblyU: 58.605 [ms]
DILUPBiCGStab:  Solving for Ux, Initial residual = 0.00996748, Final residual = 0.000332606, No Iterations 5
DILUPBiCGStab:  Solving for Uy, Initial residual = 0.0257552, Final residual = 0.000942487, No Iterations 5
DILUPBiCGStab:  Solving for Uz, Initial residual = 0.108853, Final residual = 0.00656073, No Iterations 5
[INFO] MomentumPredictor: 372.415 [ms]
[INFO] MatrixAssemblyPI: 65.144 [ms]
[INFO] AdjustPhi: 3.736 [ms]
[INFO] ConstrainPressure: 0.004 [ms]
[INFO] MatrixAssemblyPII: 15.698 [ms]
[OGL LOG][Proc: 0]: global_index_init: 0.08 [ms]
[OGL LOG][Proc: 0]p_local_coeffs: call_update: 0 [ms]
[OGL LOG][Proc: 0]p_non_local_coeffs: call_update: 0 [ms]
[OGL LOG][Proc: 0]p: update_local_matrix_data: 29.923 [ms]
[OGL LOG][Proc: 0]p: update_non_local_matrix_data: 0.668 [ms]
[OGL LOG][Proc: 0]p: regenerate_distributed_matrix: 54.871 [ms]
[OGL LOG][Proc: 0]p_matrix: call_update: 65.257 [ms]
[OGL LOG][Proc: 0]p_rhs: call_update: 0.308 [ms]
[OGL LOG][Preconditioner.H:121] Generate preconditioner BJ MaxBlockSize 1
[OGL LOG][Proc: 0]p: init_precond: 1.435 [ms]
[OGL LOG][StoppingCriterion.H:239] Creating stopping criterion with minIter 893 frequency 24
[OGL LOG][Proc: 0]p: generate_solver: 0.019 [ms]
[OGL LOG][Proc: 0]p: solve: 32636.6 [ms]
[OGL LOG][Proc: 0]p: copy_x_back: 1.245 [ms]
[OGL LOG][lduLduBase.H:330] 
Statistics:
	Time per iteration: 21918 [mu s]
	Time per residual norm calculation: 12317.000000 [mu s]
	Time per iteration and DOF: 2.739750 [ns]
	Retrieve results bandwidth 0.703000 [GByte/s]
[OGL LOG][Proc: 0]p: solve_multi_gpu: 32724.8 [ms]
BJcudaGKOCG:  Solving for p, Initial residual = 0.484221, Final residual = 7.0902e-05, No Iterations 1489
[INFO] SolveP: 32759.2 [ms]
time step continuity errors : sum local = 4.04373e-09, global = -1.05621e-20, cumulative = -1.56108e-19
[INFO] ContinuityError: 5.063 [ms]
[INFO] CorrectBoundary: 0.988 [ms]
[INFO] PISOStep: 32878.8 [ms]
[INFO] MatrixAssemblyPI: 64.745 [ms]
[INFO] AdjustPhi: 3.863 [ms]
[INFO] ConstrainPressure: 0.005 [ms]
[INFO] MatrixAssemblyPII: 17.236 [ms]
[OGL LOG][Proc: 0]: global_index_init: 0.063 [ms]
[OGL LOG][Proc: 0]p_local_coeffs: call_update: 0 [ms]
[OGL LOG][Proc: 0]p_non_local_coeffs: call_update: 0 [ms]
[OGL LOG][Proc: 0]p: update_local_matrix_data: 29.413 [ms]
[OGL LOG][Proc: 0]p: update_non_local_matrix_data: 0.68 [ms]
[OGL LOG][Proc: 0]p: regenerate_distributed_matrix: 52.501 [ms]
[OGL LOG][Proc: 0]p_matrix: call_update: 64.839 [ms]
[OGL LOG][Proc: 0]p_rhs: call_update: 0.531 [ms]
[OGL LOG][Preconditioner.H:121] Generate preconditioner BJ MaxBlockSize 1
[OGL LOG][Proc: 0]p: init_precond: 2.447 [ms]
[OGL LOG][StoppingCriterion.H:239] Creating stopping criterion with minIter 893 frequency 24
[OGL LOG][Proc: 0]p: generate_solver: 0.024 [ms]
[OGL LOG][Proc: 0]p: solve: 32632.8 [ms]
[OGL LOG][Proc: 0]p: copy_x_back: 1.299 [ms]
[OGL LOG][lduLduBase.H:330] 
Statistics:
	Time per iteration: 21915 [mu s]
	Time per residual norm calculation: 11581.000000 [mu s]
	Time per iteration and DOF: 2.739375 [ns]
	Retrieve results bandwidth 0.674000 [GByte/s]
[OGL LOG][Proc: 0]p: solve_multi_gpu: 32722.7 [ms]
BJcudaGKOCG:  Solving for p, Initial residual = 0.435844, Final residual = 6.68166e-05, No Iterations 1489
[INFO] SolveP: 32756.4 [ms]
time step continuity errors : sum local = 3.8134e-09, global = -1.27529e-20, cumulative = -1.68861e-19
[INFO] ContinuityError: 4.808 [ms]
[INFO] CorrectBoundary: 0.735 [ms]
[INFO] PISOStep: 32876.8 [ms]
[INFO] TimeStep: 66193.7 [ms]
ExecutionTime = 640.39 s  ClockTime = 662 s

Time = 0.003

Courant Number mean: 0.0496575 max: 0.482822
[INFO] MatrixAssemblyU: 58.497 [ms]
DILUPBiCGStab:  Solving for Ux, Initial residual = 0.0088679, Final residual = 0.000280783, No Iterations 5
DILUPBiCGStab:  Solving for Uy, Initial residual = 0.0229946, Final residual = 0.000770822, No Iterations 5
DILUPBiCGStab:  Solving for Uz, Initial residual = 0.0920225, Final residual = 0.00571288, No Iterations 5
[INFO] MomentumPredictor: 374.284 [ms]
[INFO] MatrixAssemblyPI: 65.468 [ms]
[INFO] AdjustPhi: 3.238 [ms]
[INFO] ConstrainPressure: 0.004 [ms]
[INFO] MatrixAssemblyPII: 15.353 [ms]
[OGL LOG][Proc: 0]: global_index_init: 0.076 [ms]
[OGL LOG][Proc: 0]p_local_coeffs: call_update: 0 [ms]
[OGL LOG][Proc: 0]p_non_local_coeffs: call_update: 0 [ms]
[OGL LOG][Proc: 0]p: update_local_matrix_data: 30.564 [ms]
[OGL LOG][Proc: 0]p: update_non_local_matrix_data: 0.672 [ms]
[OGL LOG][Proc: 0]p: regenerate_distributed_matrix: 54.049 [ms]
[OGL LOG][Proc: 0]p_matrix: call_update: 65.054 [ms]
[OGL LOG][Proc: 0]p_rhs: call_update: 0.312 [ms]
[OGL LOG][Preconditioner.H:121] Generate preconditioner BJ MaxBlockSize 1
[OGL LOG][Proc: 0]p: init_precond: 2.827 [ms]
[OGL LOG][StoppingCriterion.H:239] Creating stopping criterion with minIter 893 frequency 24
[OGL LOG][Proc: 0]p: generate_solver: 0.025 [ms]
[OGL LOG][Proc: 0]p: solve: 32635.6 [ms]
[OGL LOG][Proc: 0]p: copy_x_back: 1.346 [ms]
[OGL LOG][lduLduBase.H:330] 
Statistics:
	Time per iteration: 21917 [mu s]
	Time per residual norm calculation: 10629.000000 [mu s]
	Time per iteration and DOF: 2.739625 [ns]
	Retrieve results bandwidth 0.650000 [GByte/s]
[OGL LOG][Proc: 0]p: solve_multi_gpu: 32725.3 [ms]
BJcudaGKOCG:  Solving for p, Initial residual = 0.428274, Final residual = 7.35739e-05, No Iterations 1489
[INFO] SolveP: 32760.2 [ms]
time step continuity errors : sum local = 4.0931e-09, global = -8.0233e-21, cumulative = -1.76884e-19
[INFO] ContinuityError: 6.579 [ms]
[INFO] CorrectBoundary: 1.554 [ms]
[INFO] PISOStep: 32884.5 [ms]
[INFO] MatrixAssemblyPI: 64.768 [ms]
[INFO] AdjustPhi: 2.379 [ms]
[INFO] ConstrainPressure: 0.003 [ms]
[INFO] MatrixAssemblyPII: 16.966 [ms]
[OGL LOG][Proc: 0]: global_index_init: 0.076 [ms]
[OGL LOG][Proc: 0]p_local_coeffs: call_update: 0 [ms]
[OGL LOG][Proc: 0]p_non_local_coeffs: call_update: 0 [ms]
[OGL LOG][Proc: 0]p: update_local_matrix_data: 30.065 [ms]
[OGL LOG][Proc: 0]p: update_non_local_matrix_data: 0.671 [ms]
[OGL LOG][Proc: 0]p: regenerate_distributed_matrix: 54.183 [ms]
[OGL LOG][Proc: 0]p_matrix: call_update: 65.319 [ms]
[OGL LOG][Proc: 0]p_rhs: call_update: 0.319 [ms]
[OGL LOG][Preconditioner.H:121] Generate preconditioner BJ MaxBlockSize 1
[OGL LOG][Proc: 0]p: init_precond: 3.516 [ms]
[OGL LOG][StoppingCriterion.H:239] Creating stopping criterion with minIter 893 frequency 17
[OGL LOG][Proc: 0]p: generate_solver: 0.022 [ms]
[OGL LOG][Proc: 0]p: solve: 32560.8 [ms]
[OGL LOG][Proc: 0]p: copy_x_back: 1.307 [ms]
[OGL LOG][lduLduBase.H:330] 
Statistics:
	Time per iteration: 22000 [mu s]
	Time per residual norm calculation: 11427.000000 [mu s]
	Time per iteration and DOF: 2.750000 [ns]
	Retrieve results bandwidth 0.670000 [GByte/s]
[OGL LOG][Proc: 0]p: solve_multi_gpu: 32651.1 [ms]
BJcudaGKOCG:  Solving for p, Initial residual = 0.386935, Final residual = 8.73743e-05, No Iterations 1480
[INFO] SolveP: 32685.6 [ms]
time step continuity errors : sum local = 4.84266e-09, global = -1.51622e-20, cumulative = -1.92047e-19
[INFO] ContinuityError: 10.435 [ms]
[INFO] CorrectBoundary: 0.703 [ms]
[INFO] PISOStep: 32809.7 [ms]
[INFO] TimeStep: 66133.2 [ms]
ExecutionTime = 706.16 s  ClockTime = 728 s

Time = 0.00325

Courant Number mean: 0.0512788 max: 0.483458
[INFO] MatrixAssemblyU: 57.99 [ms]
DILUPBiCGStab:  Solving for Ux, Initial residual = 0.00804956, Final residual = 0.000235027, No Iterations 5
DILUPBiCGStab:  Solving for Uy, Initial residual = 0.0201926, Final residual = 0.000604106, No Iterations 5
DILUPBiCGStab:  Solving for Uz, Initial residual = 0.0796169, Final residual = 0.00519773, No Iterations 5
[INFO] MomentumPredictor: 387.443 [ms]
[INFO] MatrixAssemblyPI: 64.59 [ms]
[INFO] AdjustPhi: 5.076 [ms]
[INFO] ConstrainPressure: 0.003 [ms]
[INFO] MatrixAssemblyPII: 15.594 [ms]
[OGL LOG][Proc: 0]: global_index_init: 0.098 [ms]
[OGL LOG][Proc: 0]p_local_coeffs: call_update: 0 [ms]
[OGL LOG][Proc: 0]p_non_local_coeffs: call_update: 0 [ms]
[OGL LOG][Proc: 0]p: update_local_matrix_data: 31.189 [ms]
[OGL LOG][Proc: 0]p: update_non_local_matrix_data: 0.651 [ms]
[OGL LOG][Proc: 0]p: regenerate_distributed_matrix: 59.796 [ms]
[OGL LOG][Proc: 0]p_matrix: call_update: 70.436 [ms]
[OGL LOG][Proc: 0]p_rhs: call_update: 0.291 [ms]
[OGL LOG][Preconditioner.H:121] Generate preconditioner BJ MaxBlockSize 1
[OGL LOG][Proc: 0]p: init_precond: 3.837 [ms]
[OGL LOG][StoppingCriterion.H:239] Creating stopping criterion with minIter 888 frequency 24
[OGL LOG][Proc: 0]p: generate_solver: 0.028 [ms]
[OGL LOG][Proc: 0]p: solve: 32651.9 [ms]
[OGL LOG][Proc: 0]p: copy_x_back: 1.289 [ms]
[OGL LOG][lduLduBase.H:330] 
Statistics:
	Time per iteration: 21928 [mu s]
	Time per residual norm calculation: 10623.000000 [mu s]
	Time per iteration and DOF: 2.741000 [ns]
	Retrieve results bandwidth 0.679000 [GByte/s]
[OGL LOG][Proc: 0]p: solve_multi_gpu: 32746.9 [ms]
BJcudaGKOCG:  Solving for p, Initial residual = 0.402148, Final residual = 6.23578e-05, No Iterations 1489
[INFO] SolveP: 32782.6 [ms]
time step continuity errors : sum local = 3.249e-09, global = -1.53939e-20, cumulative = -2.07441e-19
[INFO] ContinuityError: 5.004 [ms]
[INFO] CorrectBoundary: 1.238 [ms]
[INFO] PISOStep: 32902.9 [ms]
[INFO] MatrixAssemblyPI: 64.365 [ms]
[INFO] AdjustPhi: 5.669 [ms]
[INFO] ConstrainPressure: 0.003 [ms]
[INFO] MatrixAssemblyPII: 16.965 [ms]
[OGL LOG][Proc: 0]: global_index_init: 0.082 [ms]
[OGL LOG][Proc: 0]p_local_coeffs: call_update: 0 [ms]
[OGL LOG][Proc: 0]p_non_local_coeffs: call_update: 0 [ms]
[OGL LOG][Proc: 0]p: update_local_matrix_data: 28.68 [ms]
[OGL LOG][Proc: 0]p: update_non_local_matrix_data: 0.725 [ms]
[OGL LOG][Proc: 0]p: regenerate_distributed_matrix: 56.626 [ms]
[OGL LOG][Proc: 0]p_matrix: call_update: 65.969 [ms]
[OGL LOG][Proc: 0]p_rhs: call_update: 0.298 [ms]
[OGL LOG][Preconditioner.H:121] Generate preconditioner BJ MaxBlockSize 1
[OGL LOG][Proc: 0]p: init_precond: 2.106 [ms]
[OGL LOG][StoppingCriterion.H:239] Creating stopping criterion with minIter 893 frequency 17
[OGL LOG][Proc: 0]p: generate_solver: 0.022 [ms]
[OGL LOG][Proc: 0]p: solve: 32557.1 [ms]
[OGL LOG][Proc: 0]p: copy_x_back: 1.291 [ms]
[OGL LOG][lduLduBase.H:330] 
Statistics:
	Time per iteration: 21998 [mu s]
	Time per residual norm calculation: 12616.000000 [mu s]
	Time per iteration and DOF: 2.749750 [ns]
	Retrieve results bandwidth 0.678000 [GByte/s]
[OGL LOG][Proc: 0]p: solve_multi_gpu: 32649.1 [ms]
BJcudaGKOCG:  Solving for p, Initial residual = 0.361083, Final residual = 7.66621e-05, No Iterations 1480
[INFO] SolveP: 32682.4 [ms]
time step continuity errors : sum local = 3.99847e-09, global = -1.35244e-20, cumulative = -2.20965e-19
[INFO] ContinuityError: 4.625 [ms]
[INFO] CorrectBoundary: 0.796 [ms]
[INFO] PISOStep: 32804.6 [ms]
[INFO] TimeStep: 66162.8 [ms]
ExecutionTime = 771.97 s  ClockTime = 794 s

Time = 0.0035

Courant Number mean: 0.052787 max: 0.484023
[INFO] MatrixAssemblyU: 58.627 [ms]
DILUPBiCGStab:  Solving for Ux, Initial residual = 0.00730367, Final residual = 0.000203652, No Iterations 5
DILUPBiCGStab:  Solving for Uy, Initial residual = 0.0183059, Final residual = 0.000496076, No Iterations 5
DILUPBiCGStab:  Solving for Uz, Initial residual = 0.0693412, Final residual = 0.00463088, No Iterations 5
[INFO] MomentumPredictor: 372.774 [ms]
[INFO] MatrixAssemblyPI: 64.821 [ms]
[INFO] AdjustPhi: 4.018 [ms]
[INFO] ConstrainPressure: 0.003 [ms]
[INFO] MatrixAssemblyPII: 15.64 [ms]
[OGL LOG][Proc: 0]: global_index_init: 0.059 [ms]
[OGL LOG][Proc: 0]p_local_coeffs: call_update: 0 [ms]
[OGL LOG][Proc: 0]p_non_local_coeffs: call_update: 0 [ms]
[OGL LOG][Proc: 0]p: update_local_matrix_data: 29.722 [ms]
[OGL LOG][Proc: 0]p: update_non_local_matrix_data: 0.675 [ms]
[OGL LOG][Proc: 0]p: regenerate_distributed_matrix: 54.659 [ms]
[OGL LOG][Proc: 0]p_matrix: call_update: 65.56 [ms]
[OGL LOG][Proc: 0]p_rhs: call_update: 0.264 [ms]
[OGL LOG][Preconditioner.H:121] Generate preconditioner BJ MaxBlockSize 1
[OGL LOG][Proc: 0]p: init_precond: 2.644 [ms]
[OGL LOG][StoppingCriterion.H:239] Creating stopping criterion with minIter 888 frequency 24
[OGL LOG][Proc: 0]p: generate_solver: 0.023 [ms]
[OGL LOG][Proc: 0]p: solve: 32648.7 [ms]
[OGL LOG][Proc: 0]p: copy_x_back: 1.166 [ms]
[OGL LOG][lduLduBase.H:330] 
Statistics:
	Time per iteration: 21926 [mu s]
	Time per residual norm calculation: 13195.000000 [mu s]
	Time per iteration and DOF: 2.740750 [ns]
	Retrieve results bandwidth 0.751000 [GByte/s]
[OGL LOG][Proc: 0]p: solve_multi_gpu: 32740.5 [ms]
BJcudaGKOCG:  Solving for p, Initial residual = 0.361651, Final residual = 6.10254e-05, No Iterations 1489
[INFO] SolveP: 32774.5 [ms]
time step continuity errors : sum local = 3.09141e-09, global = -1.77125e-20, cumulative = -2.38677e-19
[INFO] ContinuityError: 5.051 [ms]
[INFO] CorrectBoundary: 1.103 [ms]
[INFO] PISOStep: 32894.3 [ms]
[INFO] MatrixAssemblyPI: 64.241 [ms]
[INFO] AdjustPhi: 3.415 [ms]
[INFO] ConstrainPressure: 0.005 [ms]
[INFO] MatrixAssemblyPII: 16.898 [ms]
[OGL LOG][Proc: 0]: global_index_init: 0.076 [ms]
[OGL LOG][Proc: 0]p_local_coeffs: call_update: 0 [ms]
[OGL LOG][Proc: 0]p_non_local_coeffs: call_update: 0 [ms]
[OGL LOG][Proc: 0]p: update_local_matrix_data: 30.117 [ms]
[OGL LOG][Proc: 0]p: update_non_local_matrix_data: 0.662 [ms]
[OGL LOG][Proc: 0]p: regenerate_distributed_matrix: 55.94 [ms]
[OGL LOG][Proc: 0]p_matrix: call_update: 66.495 [ms]
[OGL LOG][Proc: 0]p_rhs: call_update: 0.229 [ms]
[OGL LOG][Preconditioner.H:121] Generate preconditioner BJ MaxBlockSize 1
[OGL LOG][Proc: 0]p: init_precond: 2.961 [ms]
[OGL LOG][StoppingCriterion.H:239] Creating stopping criterion with minIter 893 frequency 24
[OGL LOG][Proc: 0]p: generate_solver: 0.024 [ms]
[OGL LOG][Proc: 0]p: solve: 32631.1 [ms]
[OGL LOG][Proc: 0]p: copy_x_back: 1.319 [ms]
[OGL LOG][lduLduBase.H:330] 
Statistics:
	Time per iteration: 21914 [mu s]
	Time per residual norm calculation: 12477.000000 [mu s]
	Time per iteration and DOF: 2.739250 [ns]
	Retrieve results bandwidth 0.664000 [GByte/s]
[OGL LOG][Proc: 0]p: solve_multi_gpu: 32722 [ms]
BJcudaGKOCG:  Solving for p, Initial residual = 0.326206, Final residual = 5.75267e-05, No Iterations 1489
[INFO] SolveP: 32756.8 [ms]
time step continuity errors : sum local = 2.90478e-09, global = -1.49801e-20, cumulative = -2.53657e-19
[INFO] ContinuityError: 4.601 [ms]
[INFO] CorrectBoundary: 0.574 [ms]
[INFO] PISOStep: 32876.2 [ms]
[INFO] TimeStep: 66209.4 [ms]
ExecutionTime = 837.82 s  ClockTime = 860 s

Time = 0.00375

Courant Number mean: 0.0542007 max: 0.484513
[INFO] MatrixAssemblyU: 58.699 [ms]
DILUPBiCGStab:  Solving for Ux, Initial residual = 0.00669833, Final residual = 0.000173431, No Iterations 5
DILUPBiCGStab:  Solving for Uy, Initial residual = 0.0164268, Final residual = 0.000405953, No Iterations 5
DILUPBiCGStab:  Solving for Uz, Initial residual = 0.0608205, Final residual = 0.00419998, No Iterations 5
[INFO] MomentumPredictor: 368.055 [ms]
[INFO] MatrixAssemblyPI: 65.039 [ms]
[INFO] AdjustPhi: 3.038 [ms]
[INFO] ConstrainPressure: 0.003 [ms]
[INFO] MatrixAssemblyPII: 15.58 [ms]
[OGL LOG][Proc: 0]: global_index_init: 0.072 [ms]
[OGL LOG][Proc: 0]p_local_coeffs: call_update: 0 [ms]
[OGL LOG][Proc: 0]p_non_local_coeffs: call_update: 0 [ms]
[OGL LOG][Proc: 0]p: update_local_matrix_data: 30.744 [ms]
[OGL LOG][Proc: 0]p: update_non_local_matrix_data: 0.664 [ms]
[OGL LOG][Proc: 0]p: regenerate_distributed_matrix: 54.595 [ms]
[OGL LOG][Proc: 0]p_matrix: call_update: 64.931 [ms]
[OGL LOG][Proc: 0]p_rhs: call_update: 0.23 [ms]
[OGL LOG][Preconditioner.H:121] Generate preconditioner BJ MaxBlockSize 1
[OGL LOG][Proc: 0]p: init_precond: 1.954 [ms]
[OGL LOG][StoppingCriterion.H:239] Creating stopping criterion with minIter 893 frequency 24
[OGL LOG][Proc: 0]p: generate_solver: 0.022 [ms]
[OGL LOG][Proc: 0]p: solve: 32638.9 [ms]
[OGL LOG][Proc: 0]p: copy_x_back: 1.264 [ms]
[OGL LOG][lduLduBase.H:330] 
Statistics:
	Time per iteration: 21920 [mu s]
	Time per residual norm calculation: 11728.000000 [mu s]
	Time per iteration and DOF: 2.740000 [ns]
	Retrieve results bandwidth 0.692000 [GByte/s]
[OGL LOG][Proc: 0]p: solve_multi_gpu: 32727.8 [ms]
BJcudaGKOCG:  Solving for p, Initial residual = 0.334392, Final residual = 5.13439e-05, No Iterations 1489
[INFO] SolveP: 32763.6 [ms]
time step continuity errors : sum local = 2.49903e-09, global = -1.41253e-20, cumulative = -2.67783e-19
[INFO] ContinuityError: 5.246 [ms]
[INFO] CorrectBoundary: 1.036 [ms]
[INFO] PISOStep: 32882.4 [ms]
[INFO] MatrixAssemblyPI: 64.337 [ms]
[INFO] AdjustPhi: 2.441 [ms]
[INFO] ConstrainPressure: 0.004 [ms]
[INFO] MatrixAssemblyPII: 16.958 [ms]
[OGL LOG][Proc: 0]: global_index_init: 0.093 [ms]
[OGL LOG][Proc: 0]p_local_coeffs: call_update: 0 [ms]
[OGL LOG][Proc: 0]p_non_local_coeffs: call_update: 0 [ms]
[OGL LOG][Proc: 0]p: update_local_matrix_data: 28.217 [ms]
[OGL LOG][Proc: 0]p: update_non_local_matrix_data: 0.656 [ms]
[OGL LOG][Proc: 0]p: regenerate_distributed_matrix: 61.325 [ms]
[OGL LOG][Proc: 0]p_matrix: call_update: 66.226 [ms]
[OGL LOG][Proc: 0]p_rhs: call_update: 0.316 [ms]
[OGL LOG][Preconditioner.H:121] Generate preconditioner BJ MaxBlockSize 1
[OGL LOG][Proc: 0]p: init_precond: 2.787 [ms]
[OGL LOG][StoppingCriterion.H:239] Creating stopping criterion with minIter 893 frequency 24
[OGL LOG][Proc: 0]p: generate_solver: 0.032 [ms]
[OGL LOG][Proc: 0]p: solve: 32107.6 [ms]
[OGL LOG][Proc: 0]p: copy_x_back: 1.238 [ms]
[OGL LOG][lduLduBase.H:330] 
Statistics:
	Time per iteration: 21916 [mu s]
	Time per residual norm calculation: 11844.000000 [mu s]
	Time per iteration and DOF: 2.739500 [ns]
	Retrieve results bandwidth 0.707000 [GByte/s]
[OGL LOG][Proc: 0]p: solve_multi_gpu: 32200.2 [ms]
BJcudaGKOCG:  Solving for p, Initial residual = 0.299917, Final residual = 9.89695e-05, No Iterations 1465
[INFO] SolveP: 32232.8 [ms]
time step continuity errors : sum local = 4.82133e-09, global = -1.42312e-20, cumulative = -2.82014e-19
[INFO] ContinuityError: 4.792 [ms]
[INFO] CorrectBoundary: 0.712 [ms]
[INFO] PISOStep: 32350.8 [ms]
[INFO] TimeStep: 65667.6 [ms]
ExecutionTime = 903.12 s  ClockTime = 926 s

Time = 0.004

Courant Number mean: 0.0555258 max: 0.484957
[INFO] MatrixAssemblyU: 58.402 [ms]
DILUPBiCGStab:  Solving for Ux, Initial residual = 0.00616258, Final residual = 0.000153279, No Iterations 5
DILUPBiCGStab:  Solving for Uy, Initial residual = 0.0150728, Final residual = 0.000332281, No Iterations 5
DILUPBiCGStab:  Solving for Uz, Initial residual = 0.0540832, Final residual = 0.00378094, No Iterations 5
[INFO] MomentumPredictor: 370.552 [ms]
[INFO] MatrixAssemblyPI: 65.175 [ms]
[INFO] AdjustPhi: 3.921 [ms]
[INFO] ConstrainPressure: 0.003 [ms]
[INFO] MatrixAssemblyPII: 15.38 [ms]
[OGL LOG][Proc: 0]: global_index_init: 0.067 [ms]
[OGL LOG][Proc: 0]p_local_coeffs: call_update: 0 [ms]
[OGL LOG][Proc: 0]p_non_local_coeffs: call_update: 0 [ms]
[OGL LOG][Proc: 0]p: update_local_matrix_data: 29.27 [ms]
[OGL LOG][Proc: 0]p: update_non_local_matrix_data: 0.615 [ms]
[OGL LOG][Proc: 0]p: regenerate_distributed_matrix: 55.8 [ms]
[OGL LOG][Proc: 0]p_matrix: call_update: 65.054 [ms]
[OGL LOG][Proc: 0]p_rhs: call_update: 0.319 [ms]
[OGL LOG][Preconditioner.H:121] Generate preconditioner BJ MaxBlockSize 1
[OGL LOG][Proc: 0]p: init_precond: 2.44 [ms]
[OGL LOG][StoppingCriterion.H:239] Creating stopping criterion with minIter 879 frequency 24
[OGL LOG][Proc: 0]p: generate_solver: 0.023 [ms]
[OGL LOG][Proc: 0]p: solve: 31054.8 [ms]
[OGL LOG][Proc: 0]p: copy_x_back: 1.227 [ms]
[OGL LOG][lduLduBase.H:330] 
Statistics:
	Time per iteration: 21915 [mu s]
	Time per residual norm calculation: 13047.000000 [mu s]
	Time per iteration and DOF: 2.739375 [ns]
	Retrieve results bandwidth 0.713000 [GByte/s]
[OGL LOG][Proc: 0]p: solve_multi_gpu: 31145.6 [ms]
BJcudaGKOCG:  Solving for p, Initial residual = 0.305059, Final residual = 6.44025e-05, No Iterations 1417
[INFO] SolveP: 31179.1 [ms]
time step continuity errors : sum local = 3.03346e-09, global = -1.49632e-20, cumulative = -2.96977e-19
[INFO] ContinuityError: 4.717 [ms]
[INFO] CorrectBoundary: 0.963 [ms]
[INFO] PISOStep: 31298.6 [ms]
[INFO] MatrixAssemblyPI: 64.616 [ms]
[INFO] AdjustPhi: 3.978 [ms]
[INFO] ConstrainPressure: 0.004 [ms]
[INFO] MatrixAssemblyPII: 16.836 [ms]
[OGL LOG][Proc: 0]: global_index_init: 0.056 [ms]
[OGL LOG][Proc: 0]p_local_coeffs: call_update: 0 [ms]
[OGL LOG][Proc: 0]p_non_local_coeffs: call_update: 0 [ms]
[OGL LOG][Proc: 0]p: update_local_matrix_data: 30.305 [ms]
[OGL LOG][Proc: 0]p: update_non_local_matrix_data: 0.649 [ms]
[OGL LOG][Proc: 0]p: regenerate_distributed_matrix: 67.368 [ms]
[OGL LOG][Proc: 0]p_matrix: call_update: 77.724 [ms]
[OGL LOG][Proc: 0]p_rhs: call_update: 0.369 [ms]
[OGL LOG][Preconditioner.H:121] Generate preconditioner BJ MaxBlockSize 1
[OGL LOG][Proc: 0]p: init_precond: 2.432 [ms]
[OGL LOG][StoppingCriterion.H:239] Creating stopping criterion with minIter 850 frequency 23
[OGL LOG][Proc: 0]p: generate_solver: 0.021 [ms]
[OGL LOG][Proc: 0]p: solve: 30798.7 [ms]
[OGL LOG][Proc: 0]p: copy_x_back: 1.222 [ms]
[OGL LOG][lduLduBase.H:330] 
Statistics:
	Time per iteration: 21936 [mu s]
	Time per residual norm calculation: 11868.000000 [mu s]
	Time per iteration and DOF: 2.742000 [ns]
	Retrieve results bandwidth 0.716000 [GByte/s]
[OGL LOG][Proc: 0]p: solve_multi_gpu: 30896.3 [ms]
BJcudaGKOCG:  Solving for p, Initial residual = 0.274732, Final residual = 8.83921e-05, No Iterations 1404
[INFO] SolveP: 30930.9 [ms]
time step continuity errors : sum local = 4.15283e-09, global = -1.61097e-20, cumulative = -3.13087e-19
[INFO] ContinuityError: 5.206 [ms]
[INFO] CorrectBoundary: 0.855 [ms]
[INFO] PISOStep: 31051.5 [ms]
[INFO] TimeStep: 62786.8 [ms]
ExecutionTime = 965.55 s  ClockTime = 989 s

Time = 0.00425

Courant Number mean: 0.0567761 max: 0.485349
[INFO] MatrixAssemblyU: 57.237 [ms]
DILUPBiCGStab:  Solving for Ux, Initial residual = 0.00569902, Final residual = 0.000132319, No Iterations 5
DILUPBiCGStab:  Solving for Uy, Initial residual = 0.0137366, Final residual = 0.000284516, No Iterations 5
DILUPBiCGStab:  Solving for Uz, Initial residual = 0.0484253, Final residual = 0.00347372, No Iterations 5
[INFO] MomentumPredictor: 379.249 [ms]
[INFO] MatrixAssemblyPI: 65.217 [ms]
[INFO] AdjustPhi: 2.724 [ms]
[INFO] ConstrainPressure: 0.003 [ms]
[INFO] MatrixAssemblyPII: 15.519 [ms]
[OGL LOG][Proc: 0]: global_index_init: 0.076 [ms]
[OGL LOG][Proc: 0]p_local_coeffs: call_update: 0 [ms]
[OGL LOG][Proc: 0]p_non_local_coeffs: call_update: 0 [ms]
[OGL LOG][Proc: 0]p: update_local_matrix_data: 30.137 [ms]
[OGL LOG][Proc: 0]p: update_non_local_matrix_data: 0.654 [ms]
[OGL LOG][Proc: 0]p: regenerate_distributed_matrix: 51.006 [ms]
[OGL LOG][Proc: 0]p_matrix: call_update: 63.962 [ms]
[OGL LOG][Proc: 0]p_rhs: call_update: 0.578 [ms]
[OGL LOG][Preconditioner.H:121] Generate preconditioner BJ MaxBlockSize 1
[OGL LOG][Proc: 0]p: init_precond: 1.247 [ms]
[OGL LOG][StoppingCriterion.H:239] Creating stopping criterion with minIter 842 frequency 23
[OGL LOG][Proc: 0]p: generate_solver: 0.019 [ms]
[OGL LOG][Proc: 0]p: solve: 18554.7 [ms]
[OGL LOG][Proc: 0]p: copy_x_back: 1.243 [ms]
[OGL LOG][lduLduBase.H:330] 
Statistics:
	Time per iteration: 21777 [mu s]
	Time per residual norm calculation: 10488.000000 [mu s]
	Time per iteration and DOF: 2.722125 [ns]
	Retrieve results bandwidth 0.704000 [GByte/s]
[OGL LOG][Proc: 0]p: solve_multi_gpu: 18641.7 [ms]
BJcudaGKOCG:  Solving for p, Initial residual = 0.279, Final residual = 5.61724e-05, No Iterations 852
[INFO] SolveP: 18676.7 [ms]
time step continuity errors : sum local = 2.78491e-09, global = -1.61522e-20, cumulative = -3.29239e-19
[INFO] ContinuityError: 4.822 [ms]
[INFO] CorrectBoundary: 0.735 [ms]
[INFO] PISOStep: 18795.1 [ms]
[INFO] MatrixAssemblyPI: 62.425 [ms]
[INFO] AdjustPhi: 9.277 [ms]
[INFO] ConstrainPressure: 0.005 [ms]
[INFO] MatrixAssemblyPII: 15.477 [ms]
[OGL LOG][Proc: 0]: global_index_init: 0.072 [ms]
[OGL LOG][Proc: 0]p_local_coeffs: call_update: 0 [ms]
[OGL LOG][Proc: 0]p_non_local_coeffs: call_update: 0 [ms]
[OGL LOG][Proc: 0]p: update_local_matrix_data: 30.212 [ms]
[OGL LOG][Proc: 0]p: update_non_local_matrix_data: 0.67 [ms]
[OGL LOG][Proc: 0]p: regenerate_distributed_matrix: 75.338 [ms]
[OGL LOG][Proc: 0]p_matrix: call_update: 85.107 [ms]
[OGL LOG][Proc: 0]p_rhs: call_update: 0.225 [ms]
[OGL LOG][Preconditioner.H:121] Generate preconditioner BJ MaxBlockSize 1
[OGL LOG][Proc: 0]p: init_precond: 1.795 [ms]
[OGL LOG][StoppingCriterion.H:239] Creating stopping criterion with minIter 511 frequency 13
[OGL LOG][Proc: 0]p: generate_solver: 0.023 [ms]
[OGL LOG][Proc: 0]p: solve: 14610 [ms]
[OGL LOG][Proc: 0]p: copy_x_back: 0.782 [ms]
[OGL LOG][lduLduBase.H:330] 
Statistics:
	Time per iteration: 22002 [mu s]
	Time per residual norm calculation: 10618.000000 [mu s]
	Time per iteration and DOF: 2.750250 [ns]
	Retrieve results bandwidth 1.120000 [GByte/s]
[OGL LOG][Proc: 0]p: solve_multi_gpu: 14718.3 [ms]
BJcudaGKOCG:  Solving for p, Initial residual = 0.250252, Final residual = 9.13394e-05, No Iterations 664
[INFO] SolveP: 14754.6 [ms]
time step continuity errors : sum local = 4.27851e-09, global = -1.47384e-20, cumulative = -3.43977e-19
[INFO] ContinuityError: 9.213 [ms]
[INFO] CorrectBoundary: 1.771 [ms]
[INFO] PISOStep: 14882.8 [ms]
[INFO] TimeStep: 34122 [ms]
ExecutionTime = 999.49 s  ClockTime = 1023 s

Time = 0.0045

Courant Number mean: 0.0579556 max: 0.485708
[INFO] MatrixAssemblyU: 54.346 [ms]
DILUPBiCGStab:  Solving for Ux, Initial residual = 0.00529996, Final residual = 0.000118768, No Iterations 5
DILUPBiCGStab:  Solving for Uy, Initial residual = 0.0127266, Final residual = 0.000233598, No Iterations 5
DILUPBiCGStab:  Solving for Uz, Initial residual = 0.0433693, Final residual = 0.0030961, No Iterations 5
[INFO] MomentumPredictor: 385.392 [ms]
[INFO] MatrixAssemblyPI: 64.753 [ms]
[INFO] AdjustPhi: 3.428 [ms]
[INFO] ConstrainPressure: 0.002 [ms]
[INFO] MatrixAssemblyPII: 15.552 [ms]
[OGL LOG][Proc: 0]: global_index_init: 0.056 [ms]
[OGL LOG][Proc: 0]p_local_coeffs: call_update: 0 [ms]
[OGL LOG][Proc: 0]p_non_local_coeffs: call_update: 0 [ms]
[OGL LOG][Proc: 0]p: update_local_matrix_data: 30.737 [ms]
[OGL LOG][Proc: 0]p: update_non_local_matrix_data: 0.652 [ms]
[OGL LOG][Proc: 0]p: regenerate_distributed_matrix: 55.605 [ms]
[OGL LOG][Proc: 0]p_matrix: call_update: 66.322 [ms]
[OGL LOG][Proc: 0]p_rhs: call_update: 0.312 [ms]
[OGL LOG][Preconditioner.H:121] Generate preconditioner BJ MaxBlockSize 1
[OGL LOG][Proc: 0]p: init_precond: 1.918 [ms]
[OGL LOG][StoppingCriterion.H:239] Creating stopping criterion with minIter 398 frequency 11
[OGL LOG][Proc: 0]p: generate_solver: 0.019 [ms]
[OGL LOG][Proc: 0]p: solve: 15939.3 [ms]
[OGL LOG][Proc: 0]p: copy_x_back: 1.256 [ms]
[OGL LOG][lduLduBase.H:330] 
Statistics:
	Time per iteration: 22261 [mu s]
	Time per residual norm calculation: 11855.000000 [mu s]
	Time per iteration and DOF: 2.782625 [ns]
	Retrieve results bandwidth 0.697000 [GByte/s]
[OGL LOG][Proc: 0]p: solve_multi_gpu: 16028.4 [ms]
BJcudaGKOCG:  Solving for p, Initial residual = 0.256704, Final residual = 9.79664e-05, No Iterations 716
[INFO] SolveP: 16063.8 [ms]
time step continuity errors : sum local = 4.83636e-09, global = -1.91216e-20, cumulative = -3.63099e-19
[INFO] ContinuityError: 4.201 [ms]
[INFO] CorrectBoundary: 1.297 [ms]
[INFO] PISOStep: 16181.2 [ms]
[INFO] MatrixAssemblyPI: 65.961 [ms]
[INFO] AdjustPhi: 2.318 [ms]
[INFO] ConstrainPressure: 0.003 [ms]
[INFO] MatrixAssemblyPII: 15.915 [ms]
[OGL LOG][Proc: 0]: global_index_init: 0.054 [ms]
[OGL LOG][Proc: 0]p_local_coeffs: call_update: 0 [ms]
[OGL LOG][Proc: 0]p_non_local_coeffs: call_update: 0 [ms]
[OGL LOG][Proc: 0]p: update_local_matrix_data: 30.256 [ms]
[OGL LOG][Proc: 0]p: update_non_local_matrix_data: 0.669 [ms]
[OGL LOG][Proc: 0]p: regenerate_distributed_matrix: 58.232 [ms]
[OGL LOG][Proc: 0]p_matrix: call_update: 65.678 [ms]
[OGL LOG][Proc: 0]p_rhs: call_update: 0.22 [ms]
[OGL LOG][Preconditioner.H:121] Generate preconditioner BJ MaxBlockSize 1
[OGL LOG][Proc: 0]p: init_precond: 1.771 [ms]
[OGL LOG][StoppingCriterion.H:239] Creating stopping criterion with minIter 429 frequency 16
[OGL LOG][Proc: 0]p: generate_solver: 0.026 [ms]
[OGL LOG][Proc: 0]p: solve: 15209.8 [ms]
[OGL LOG][Proc: 0]p: copy_x_back: 1.217 [ms]
[OGL LOG][lduLduBase.H:330] 
Statistics:
	Time per iteration: 22075 [mu s]
	Time per residual norm calculation: 11379.000000 [mu s]
	Time per iteration and DOF: 2.759375 [ns]
	Retrieve results bandwidth 0.719000 [GByte/s]
[OGL LOG][Proc: 0]p: solve_multi_gpu: 15297.6 [ms]
BJcudaGKOCG:  Solving for p, Initial residual = 0.231009, Final residual = 9.46316e-05, No Iterations 689
[INFO] SolveP: 15332 [ms]
time step continuity errors : sum local = 4.34086e-09, global = -1.52833e-20, cumulative = -3.78382e-19
[INFO] ContinuityError: 5.068 [ms]
[INFO] CorrectBoundary: 0.559 [ms]
[INFO] PISOStep: 15452.2 [ms]
[INFO] TimeStep: 32081.3 [ms]
ExecutionTime = 1031.38 s  ClockTime = 1055 s

Time = 0.00475

Courant Number mean: 0.059074 max: 0.486031
[INFO] MatrixAssemblyU: 59.503 [ms]
DILUPBiCGStab:  Solving for Ux, Initial residual = 0.00492968, Final residual = 0.000103733, No Iterations 5
DILUPBiCGStab:  Solving for Uy, Initial residual = 0.0117624, Final residual = 0.000207651, No Iterations 5
DILUPBiCGStab:  Solving for Uz, Initial residual = 0.0398142, Final residual = 0.00286165, No Iterations 5
[INFO] MomentumPredictor: 370.861 [ms]
[INFO] MatrixAssemblyPI: 64.514 [ms]
[INFO] AdjustPhi: 5.668 [ms]
[INFO] ConstrainPressure: 0.003 [ms]
[INFO] MatrixAssemblyPII: 15.506 [ms]
[OGL LOG][Proc: 0]: global_index_init: 0.073 [ms]
[OGL LOG][Proc: 0]p_local_coeffs: call_update: 0.001 [ms]
[OGL LOG][Proc: 0]p_non_local_coeffs: call_update: 0 [ms]
[OGL LOG][Proc: 0]p: update_local_matrix_data: 30.892 [ms]
[OGL LOG][Proc: 0]p: update_non_local_matrix_data: 0.688 [ms]
[OGL LOG][Proc: 0]p: regenerate_distributed_matrix: 53.899 [ms]
[OGL LOG][Proc: 0]p_matrix: call_update: 65.092 [ms]
[OGL LOG][Proc: 0]p_rhs: call_update: 0.48 [ms]
[OGL LOG][Preconditioner.H:121] Generate preconditioner BJ MaxBlockSize 1
[OGL LOG][Proc: 0]p: init_precond: 2.595 [ms]
[OGL LOG][StoppingCriterion.H:239] Creating stopping criterion with minIter 413 frequency 16
[OGL LOG][Proc: 0]p: generate_solver: 0.02 [ms]
[OGL LOG][Proc: 0]p: solve: 32777.9 [ms]
[OGL LOG][Proc: 0]p: copy_x_back: 1.194 [ms]
[OGL LOG][lduLduBase.H:330] 
Statistics:
	Time per iteration: 22252 [mu s]
	Time per residual norm calculation: 11869.000000 [mu s]
	Time per iteration and DOF: 2.781500 [ns]
	Retrieve results bandwidth 0.733000 [GByte/s]
[OGL LOG][Proc: 0]p: solve_multi_gpu: 32866.2 [ms]
BJcudaGKOCG:  Solving for p, Initial residual = 0.233583, Final residual = 8.18895e-05, No Iterations 1473
[INFO] SolveP: 32901.6 [ms]
time step continuity errors : sum local = 3.60806e-09, global = -1.56672e-20, cumulative = -3.9405e-19
[INFO] ContinuityError: 4.935 [ms]
[INFO] CorrectBoundary: 0.978 [ms]
[INFO] PISOStep: 33023.2 [ms]
[INFO] MatrixAssemblyPI: 64.692 [ms]
[INFO] AdjustPhi: 2.843 [ms]
[INFO] ConstrainPressure: 0.003 [ms]
[INFO] MatrixAssemblyPII: 16.102 [ms]
[OGL LOG][Proc: 0]: global_index_init: 0.057 [ms]
[OGL LOG][Proc: 0]p_local_coeffs: call_update: 0 [ms]
[OGL LOG][Proc: 0]p_non_local_coeffs: call_update: 0 [ms]
[OGL LOG][Proc: 0]p: update_local_matrix_data: 30.259 [ms]
[OGL LOG][Proc: 0]p: update_non_local_matrix_data: 0.63 [ms]
[OGL LOG][Proc: 0]p: regenerate_distributed_matrix: 56.307 [ms]
[OGL LOG][Proc: 0]p_matrix: call_update: 66.686 [ms]
[OGL LOG][Proc: 0]p_rhs: call_update: 0.295 [ms]
[OGL LOG][Preconditioner.H:121] Generate preconditioner BJ MaxBlockSize 1
[OGL LOG][Proc: 0]p: init_precond: 2.428 [ms]
[OGL LOG][StoppingCriterion.H:239] Creating stopping criterion with minIter 883 frequency 24
[OGL LOG][Proc: 0]p: generate_solver: 0.023 [ms]
[OGL LOG][Proc: 0]p: solve: 32648.2 [ms]
[OGL LOG][Proc: 0]p: copy_x_back: 1.202 [ms]
[OGL LOG][lduLduBase.H:330] 
Statistics:
	Time per iteration: 21926 [mu s]
	Time per residual norm calculation: 13217.000000 [mu s]
	Time per iteration and DOF: 2.740750 [ns]
	Retrieve results bandwidth 0.728000 [GByte/s]
[OGL LOG][Proc: 0]p: solve_multi_gpu: 32738 [ms]
BJcudaGKOCG:  Solving for p, Initial residual = 0.209572, Final residual = 4.07354e-05, No Iterations 1489
[INFO] SolveP: 32772.8 [ms]
time step continuity errors : sum local = 1.79545e-09, global = -1.67945e-20, cumulative = -4.10844e-19
[INFO] ContinuityError: 4.632 [ms]
[INFO] CorrectBoundary: 0.685 [ms]
[INFO] PISOStep: 32892.3 [ms]
[INFO] TimeStep: 66353.7 [ms]
ExecutionTime = 1097.37 s  ClockTime = 1121 s

Time = 0.005

Courant Number mean: 0.0601342 max: 0.486328
[INFO] MatrixAssemblyU: 57.881 [ms]
DILUPBiCGStab:  Solving for Ux, Initial residual = 0.00462521, Final residual = 9.42078e-05, No Iterations 5
DILUPBiCGStab:  Solving for Uy, Initial residual = 0.0109763, Final residual = 0.000172289, No Iterations 5
DILUPBiCGStab:  Solving for Uz, Initial residual = 0.0363044, Final residual = 0.0025439, No Iterations 5
[INFO] MomentumPredictor: 375.095 [ms]
[INFO] MatrixAssemblyPI: 65.011 [ms]
[INFO] AdjustPhi: 3.454 [ms]
[INFO] ConstrainPressure: 0.003 [ms]
[INFO] MatrixAssemblyPII: 15.741 [ms]
[OGL LOG][Proc: 0]: global_index_init: 0.064 [ms]
[OGL LOG][Proc: 0]p_local_coeffs: call_update: 0 [ms]
[OGL LOG][Proc: 0]p_non_local_coeffs: call_update: 0 [ms]
[OGL LOG][Proc: 0]p: update_local_matrix_data: 31.007 [ms]
[OGL LOG][Proc: 0]p: update_non_local_matrix_data: 0.742 [ms]
[OGL LOG][Proc: 0]p: regenerate_distributed_matrix: 53.242 [ms]
[OGL LOG][Proc: 0]p_matrix: call_update: 64.477 [ms]
[OGL LOG][Proc: 0]p_rhs: call_update: 0.36 [ms]
[OGL LOG][Preconditioner.H:121] Generate preconditioner BJ MaxBlockSize 1
[OGL LOG][Proc: 0]p: init_precond: 2.403 [ms]
[OGL LOG][StoppingCriterion.H:239] Creating stopping criterion with minIter 893 frequency 24
[OGL LOG][Proc: 0]p: generate_solver: 0.027 [ms]
[OGL LOG][Proc: 0]p: solve: 32636.8 [ms]
[OGL LOG][Proc: 0]p: copy_x_back: 1.362 [ms]
[OGL LOG][lduLduBase.H:330] 
Statistics:
	Time per iteration: 21918 [mu s]
	Time per residual norm calculation: 11408.000000 [mu s]
	Time per iteration and DOF: 2.739750 [ns]
	Retrieve results bandwidth 0.643000 [GByte/s]
[OGL LOG][Proc: 0]p: solve_multi_gpu: 32724.1 [ms]
BJcudaGKOCG:  Solving for p, Initial residual = 0.215691, Final residual = 4.17172e-05, No Iterations 1489
[INFO] SolveP: 32759.6 [ms]
time step continuity errors : sum local = 1.77787e-09, global = -1.58995e-20, cumulative = -4.26744e-19
[INFO] ContinuityError: 5.872 [ms]
[INFO] CorrectBoundary: 1.259 [ms]
[INFO] PISOStep: 32879.5 [ms]
[INFO] MatrixAssemblyPI: 64.81 [ms]
[INFO] AdjustPhi: 2.289 [ms]
[INFO] ConstrainPressure: 0.003 [ms]
[INFO] MatrixAssemblyPII: 16.123 [ms]
[OGL LOG][Proc: 0]: global_index_init: 0.062 [ms]
[OGL LOG][Proc: 0]p_local_coeffs: call_update: 0 [ms]
[OGL LOG][Proc: 0]p_non_local_coeffs: call_update: 0 [ms]
[OGL LOG][Proc: 0]p: update_local_matrix_data: 31.097 [ms]
[OGL LOG][Proc: 0]p: update_non_local_matrix_data: 0.662 [ms]
[OGL LOG][Proc: 0]p: regenerate_distributed_matrix: 59.478 [ms]
[OGL LOG][Proc: 0]p_matrix: call_update: 67.301 [ms]
[OGL LOG][Proc: 0]p_rhs: call_update: 0.22 [ms]
[OGL LOG][Preconditioner.H:121] Generate preconditioner BJ MaxBlockSize 1
[OGL LOG][Proc: 0]p: init_precond: 3.837 [ms]
[OGL LOG][StoppingCriterion.H:239] Creating stopping criterion with minIter 893 frequency 24
[OGL LOG][Proc: 0]p: generate_solver: 0.022 [ms]
[OGL LOG][Proc: 0]p: solve: 32103.7 [ms]
[OGL LOG][Proc: 0]p: copy_x_back: 1.299 [ms]
[OGL LOG][lduLduBase.H:330] 
Statistics:
	Time per iteration: 21913 [mu s]
	Time per residual norm calculation: 12893.000000 [mu s]
	Time per iteration and DOF: 2.739125 [ns]
	Retrieve results bandwidth 0.674000 [GByte/s]
[OGL LOG][Proc: 0]p: solve_multi_gpu: 32195.1 [ms]
BJcudaGKOCG:  Solving for p, Initial residual = 0.193983, Final residual = 9.61079e-05, No Iterations 1465
[INFO] SolveP: 32230.8 [ms]
time step continuity errors : sum local = 4.09105e-09, global = -1.70782e-20, cumulative = -4.43822e-19
[INFO] ContinuityError: 5.089 [ms]
[INFO] CorrectBoundary: 0.943 [ms]
[INFO] PISOStep: 32350.8 [ms]
[INFO] TimeStep: 65671 [ms]
ExecutionTime = 1162.7 s  ClockTime = 1187 s

End

Finalising parallel run
