/*---------------------------------------------------------------------------*\
| =========                 |                                                 |
| \\      /  F ield         | OpenFOAM: The Open Source CFD Toolbox           |
|  \\    /   O peration     | Version:  2306                                  |
|   \\  /    A nd           | Website:  www.openfoam.com                      |
|    \\/     M anipulation  |                                                 |
\*---------------------------------------------------------------------------*/
Build  : a6e826bd55-20230630 OPENFOAM=2306 version=v2306
Arch   : "LSB;label=32;scalar=64"
Exec   : simpleFoam -parallel -case /home/greole/data/code/exasim_project/micro_benchmarks/WindsorBody/workspace/6944d79ef2d10f741de7ed13a09e20d9/case
Date   : Aug 27 2023
Time   : 09:31:21
Host   : nla-gpu2.ianm.kit.edu
PID    : 3052478
I/O    : uncollated
Case   : /home/greole/data/code/exasim_project/micro_benchmarks/WindsorBody/workspace/6944d79ef2d10f741de7ed13a09e20d9/case
nProcs : 32
Hosts  :
(
    (nla-gpu2.ianm.kit.edu 32)
)
Pstream initialized with:
    floatTransfer      : false
    nProcsSimpleSum    : 0
    nonBlockingExchange: 0 (tuning: 0)
    exchange algorithm : -1
    commsType          : nonBlocking
    polling iterations : 0
trapFpe: Floating point exception trapping enabled (FOAM_SIGFPE).
fileModificationChecking : Monitoring run-time modified files using timeStampMaster (fileModificationSkew 5, maxFileModificationPolls 20)
allowSystemOperations : Allowing user-supplied system call operations

// * * * * * * * * * * * * * * * * * * * * * * * * * * * * * * * * * * * * * //
Create time

--> FOAM Warning : 
    From void* Foam::dlLibraryTable::openLibrary(const Foam::fileName&, bool)
    in file db/dynamicLibrary/dlLibraryTable/dlLibraryTable.C at line 188
    Could not load "libpetscFoam.so"
libpetscFoam.so: cannot open shared object file: No such file or directory
Create mesh for time = 0


SIMPLE: convergence criteria
    field p	 tolerance 1e-08
    field U	 tolerance 1e-08
    field k	 tolerance 1e-08
    field omega	 tolerance 1e-08
    field nuTilda	 tolerance 1e-08

Reading field p

Reading field U

Reading/calculating face flux field phi

Selecting incompressible transport model Newtonian
Selecting turbulence model type RAS
Selecting RAS turbulence model SpalartAllmaras
Selecting patchDistMethod meshWave
ft2 term: inactive
RAS
{
    RASModel        SpalartAllmaras;
    turbulence      on;
    printCoeffs     on;
    sigmaNut        0.66666;
    kappa           0.41;
    Cb1             0.1355;
    Cb2             0.622;
    Cw2             0.3;
    Cw3             2;
    Cv1             7.1;
    Cs              0.3;
    ck              0.07000000000000001;
    ft2             false;
    Ct3             1.2;
    Ct4             0.5;
}

No MRF models present

Creating finite volume options from "system/fvOptions"

Selecting finite volume options type velocityDampingConstraint
    Source: velocityDamping
    - selecting all cells
    - selected 6307136 cell(s) with volume 27.82583051608611

Starting time loop

--> FOAM Warning : 
    From bool Foam::functionObjectList::read()
    in file db/functionObjects/functionObjectList/functionObjectList.C at line 1035
    Reading "system/controlDict" at line 2 to 41
    Entry 'lref' is not a dictionary
--> FOAM Warning : 
    From bool Foam::functionObjectList::read()
    in file db/functionObjects/functionObjectList/functionObjectList.C at line 1035
    Reading "system/controlDict" at line 2 to 41
    Entry 'Aref' is not a dictionary
--> FOAM Warning : 
    From bool Foam::functionObjectList::read()
    in file db/functionObjects/functionObjectList/functionObjectList.C at line 1035
    Reading "system/controlDict" at line 2 to 41
    Entry 'yawAngle' is not a dictionary
--> FOAM Warning : 
    From bool Foam::functionObjectList::read()
    in file db/functionObjects/functionObjectList/functionObjectList.C at line 1035
    Reading "system/controlDict" at line 2 to 41
    Entry 'lDomain' is not a dictionary
--> FOAM Warning : 
    From bool Foam::functionObjectList::read()
    in file db/functionObjects/functionObjectList/functionObjectList.C at line 1035
    Reading "system/controlDict" at line 2 to 41
    Entry 'bDomain' is not a dictionary
--> FOAM Warning : 
    From bool Foam::functionObjectList::read()
    in file db/functionObjects/functionObjectList/functionObjectList.C at line 1035
    Reading "system/controlDict" at line 2 to 41
    Entry 'hDomain' is not a dictionary
--> FOAM Warning : 
    From bool Foam::functionObjectList::read()
    in file db/functionObjects/functionObjectList/functionObjectList.C at line 1035
    Reading "system/controlDict" at line 2 to 41
    Entry 'xCenter' is not a dictionary
--> FOAM Warning : 
    From bool Foam::functionObjectList::read()
    in file db/functionObjects/functionObjectList/functionObjectList.C at line 1035
    Reading "system/controlDict" at line 2 to 41
    Entry 'yCenter' is not a dictionary
--> FOAM Warning : 
    From bool Foam::functionObjectList::read()
    in file db/functionObjects/functionObjectList/functionObjectList.C at line 1035
    Reading "system/controlDict" at line 2 to 41
    Entry 'zCenter' is not a dictionary
--> FOAM Warning : 
    From bool Foam::functionObjectList::read()
    in file db/functionObjects/functionObjectList/functionObjectList.C at line 1035
    Reading "system/controlDict" at line 2 to 41
    Entry 'inletPatch' is not a dictionary
--> FOAM Warning : 
    From bool Foam::functionObjectList::read()
    in file db/functionObjects/functionObjectList/functionObjectList.C at line 1035
    Reading "system/controlDict" at line 2 to 41
    Entry 'outletPatch' is not a dictionary
--> FOAM Warning : 
    From bool Foam::functionObjectList::read()
    in file db/functionObjects/functionObjectList/functionObjectList.C at line 1035
    Reading "system/controlDict" at line 2 to 41
    Entry 'wallPatches' is not a dictionary
--> FOAM Warning : 
    From bool Foam::functionObjectList::read()
    in file db/functionObjects/functionObjectList/functionObjectList.C at line 1035
    Reading "system/controlDict" at line 2 to 41
    Entry 'forcesWallPatches' is not a dictionary
--> FOAM Warning : 
    From bool Foam::functionObjectList::read()
    in file db/functionObjects/functionObjectList/functionObjectList.C at line 1035
    Reading "system/controlDict" at line 2 to 41
    Entry 'symmPatches' is not a dictionary
--> FOAM Warning : 
    From bool Foam::functionObjectList::read()
    in file db/functionObjects/functionObjectList/functionObjectList.C at line 1035
    Reading "system/controlDict" at line 2 to 41
    Entry 'Uinf' is not a dictionary
--> FOAM Warning : 
    From bool Foam::functionObjectList::read()
    in file db/functionObjects/functionObjectList/functionObjectList.C at line 1035
    Reading "system/controlDict" at line 2 to 41
    Entry 'UinfMag' is not a dictionary
--> FOAM Warning : 
    From bool Foam::functionObjectList::read()
    in file db/functionObjects/functionObjectList/functionObjectList.C at line 1035
    Reading "system/controlDict" at line 2 to 41
    Entry 'nu' is not a dictionary
--> FOAM Warning : 
    From bool Foam::functionObjectList::read()
    in file db/functionObjects/functionObjectList/functionObjectList.C at line 1035
    Reading "system/controlDict" at line 2 to 41
    Entry 'pref' is not a dictionary
--> FOAM Warning : 
    From bool Foam::functionObjectList::read()
    in file db/functionObjects/functionObjectList/functionObjectList.C at line 1035
    Reading "system/controlDict" at line 2 to 41
    Entry 'viscRatio' is not a dictionary
--> FOAM Warning : 
    From bool Foam::functionObjectList::read()
    in file db/functionObjects/functionObjectList/functionObjectList.C at line 1035
    Reading "system/controlDict" at line 2 to 41
    Entry 'Tu' is not a dictionary
--> FOAM Warning : 
    From bool Foam::functionObjectList::read()
    in file db/functionObjects/functionObjectList/functionObjectList.C at line 1035
    Reading "system/controlDict" at line 2 to 41
    Entry 'LESturbModel' is not a dictionary
--> FOAM Warning : 
    From bool Foam::functionObjectList::read()
    in file db/functionObjects/functionObjectList/functionObjectList.C at line 1035
    Reading "system/controlDict" at line 2 to 41
    Entry 'RASturbModel' is not a dictionary
--> FOAM Warning : 
    From bool Foam::functionObjectList::read()
    in file db/functionObjects/functionObjectList/functionObjectList.C at line 1035
    Reading "system/controlDict" at line 2 to 41
    Entry 'deltaTurb' is not a dictionary
--> FOAM Warning : 
    From bool Foam::functionObjectList::read()
    in file db/functionObjects/functionObjectList/functionObjectList.C at line 1035
    Reading "system/controlDict" at line 2 to 41
    Entry 'dt' is not a dictionary
--> FOAM Warning : 
    From bool Foam::functionObjectList::read()
    in file db/functionObjects/functionObjectList/functionObjectList.C at line 1035
    Reading "system/controlDict" at line 2 to 41
    Entry 'tAvg' is not a dictionary
--> FOAM Warning : 
    From bool Foam::functionObjectList::read()
    in file db/functionObjects/functionObjectList/functionObjectList.C at line 1035
    Reading "system/controlDict" at line 2 to 41
    Entry 'tEnd' is not a dictionary
--> FOAM Warning : 
    From bool Foam::functionObjectList::read()
    in file db/functionObjects/functionObjectList/functionObjectList.C at line 1035
    Reading "system/controlDict" at line 2 to 41
    Entry 'writeInterval_' is not a dictionary
--> FOAM Warning : 
    From bool Foam::functionObjectList::read()
    in file db/functionObjects/functionObjectList/functionObjectList.C at line 1035
    Reading "system/controlDict" at line 2 to 41
    Entry 'nCores' is not a dictionary
--> FOAM Warning : 
    From bool Foam::functionObjectList::read()
    in file db/functionObjects/functionObjectList/functionObjectList.C at line 1035
    Reading "system/controlDict" at line 2 to 41
    Entry 'interpScheme' is not a dictionary
--> FOAM Warning : 
    From bool Foam::functionObjectList::read()
    in file db/functionObjects/functionObjectList/functionObjectList.C at line 1035
    Reading "system/controlDict" at line 2 to 41
    Entry 'probeField' is not a dictionary
wallShearStress wallShearStress:
    processing wall patches: 
        Windsor_Body
        CFDWT_Floor
        Windsor_Pins
        Windsor_Base

pressure calc_cp:
    Operating mode: staticCoeff
    Not including hydrostatic effects

forceCoeffs forceCoeffsAll:
    rho: rhoInf
    Freestream density (rhoInf) set to 1
    Not including porosity effects
    magUInf: 40
    lRef   : 0.6375
    Aref   : 0.1124
    rhoInf : 1
    Selecting all coefficients
    - Drag force: Cd
    - Drag force front: Cd(f)
    - Drag force rear: Cd(r)
    - Lift force: Cl
    - Lift force front: Cl(f)
    - Lift force rear: Cl(r)
    - Pitch moment: CmPitch
    - Roll moment: CmRoll
    - Yaw moment: CmYaw
    - Side force: Cs
    - Side force front: Cs(f)
    - Side force rear: Cs(r)


forceCoeffs dragCoeffBase:
    rho: rhoInf
    Freestream density (rhoInf) set to 1
    Not including porosity effects
    magUInf: 40
    lRef   : 0.6375
    Aref   : 0.1124
    rhoInf : 1
    Selecting coefficients:
    - Drag force: Cd


Time = 1

velocityDampingConstraint velocityDamping damped 0 (0%) of cells, with max limit 300
[INFO] MatrixAssemblyU: 482.277 [ms]
[OGL LOG][lduLduBase.H:119] Initialising OGL
	OGL commit:  4647ee1+
	Branch: PersistentDeviceIdGuard 
	Build type: Release
	Ginkgo version: 1.5.0 ( develop)
	Ginkgo commit: 4292ffdee
	MPI is GPU aware: 1
	Forces host buffer based communication: 0
	CPU ranks per GPU: 1
	Matrix format: Coo
	End OGL_INFO
[OGL LOG][Proc: 0]: global_index_init: 14.102 [ms]
[OGL LOG][Proc: 0]Ux_local_cols: call_init: 0.029 [ms]
[OGL LOG][Proc: 0]Ux_local_rows: call_init: 0.003 [ms]
[OGL LOG][Proc: 0]Ux_local_ldu_map: call_init: 0.003 [ms]
[OGL LOG][Proc: 0]Ux_local_coeffs: call_init: 0.005 [ms]
[OGL LOG][Proc: 0]Ux_non_local_cols: call_init: 0.003 [ms]
[OGL LOG][Proc: 0]Ux_non_local_rows: call_init: 0.003 [ms]
[OGL LOG][Proc: 0]Ux_non_local_ldu_map: call_init: 0.002 [ms]
[OGL LOG][Proc: 0]Ux_non_local_coeffs: call_init: 0.002 [ms]
[OGL LOG][Proc: 0]Ux: init_local_sparsity_pattern: 62.843 [ms]
[OGL LOG][Proc: 0]Ux: init_non_local_sparsity_pattern: 1.059 [ms]
[OGL LOG][Proc: 0]Ux: update_local_matrix_data: 10.417 [ms]
[OGL LOG][Proc: 0]Ux: update_non_local_matrix_data: 0.121 [ms]
[OGL LOG][Proc: 0]device_partition: call_init: 7.053 [ms]
[OGL LOG][Proc: 0]Ux_matrix: call_init: 102.418 [ms]
[OGL LOG][Proc: 0]Ux_rhs: call_init: 1.954 [ms]
[OGL LOG][Proc: 0]Ux_solution: call_init: 0.917 [ms]
[OGL LOG][Preconditioner.H:121] Generate preconditioner BJ MaxBlockSize 1
[OGL LOG][Proc: 0]Ux: init_precond: 8.182 [ms]
[OGL LOG][StoppingCriterion.H:373] Creating stopping criterion with minIter 0 frequency 1
[OGL LOG][Proc: 0]Ux: generate_solver: 0.017 [ms]
[OGL LOG][Proc: 0]Ux: solve: 1631.649 [ms]
[OGL LOG][Proc: 0]Ux: copy_x_back: 1.08 [ms]
[OGL LOG][lduLduBase.H:336] 
Statistics:
	Time per iteration: 67985 [mu s]
	Time per residual norm calculation: 2570.000000 [mu s]
	Time per iteration and DOF: 10.779060 [ns]
	Retrieve results bandwidth 1.930000 [GByte/s]
[OGL LOG][Proc: 0]Ux: solve_multi_gpu: 1754.221 [ms]
BJhipGKOBiCGStab:  Solving for Ux, Initial residual = 1.000000000000088, Final residual = 0.05874860305794025, No Iterations 24
[OGL LOG][lduLduBase.H:119] Initialising OGL
	OGL commit:  4647ee1+
	Branch: PersistentDeviceIdGuard 
	Build type: Release
	Ginkgo version: 1.5.0 ( develop)
	Ginkgo commit: 4292ffdee
	MPI is GPU aware: 1
	Forces host buffer based communication: 0
	CPU ranks per GPU: 1
	Matrix format: Coo
	End OGL_INFO
[OGL LOG][Proc: 0]: global_index_init: 1.072 [ms]
[OGL LOG][Proc: 0]Uy_local_cols: call_init: 0.005 [ms]
[OGL LOG][Proc: 0]Uy_local_rows: call_init: 0.003 [ms]
[OGL LOG][Proc: 0]Uy_local_ldu_map: call_init: 0.003 [ms]
[OGL LOG][Proc: 0]Uy_local_coeffs: call_init: 0.003 [ms]
[OGL LOG][Proc: 0]Uy_non_local_cols: call_init: 0.003 [ms]
[OGL LOG][Proc: 0]Uy_non_local_rows: call_init: 0.002 [ms]
[OGL LOG][Proc: 0]Uy_non_local_ldu_map: call_init: 0.002 [ms]
[OGL LOG][Proc: 0]Uy_non_local_coeffs: call_init: 0.003 [ms]
[OGL LOG][Proc: 0]Uy: init_local_sparsity_pattern: 68.57300000000001 [ms]
[OGL LOG][Proc: 0]Uy: init_non_local_sparsity_pattern: 0.991 [ms]
[OGL LOG][Proc: 0]Uy: update_local_matrix_data: 7.819 [ms]
[OGL LOG][Proc: 0]Uy: update_non_local_matrix_data: 0.157 [ms]
[OGL LOG][Proc: 0]Uy_matrix: call_init: 62.342 [ms]
[OGL LOG][Proc: 0]Uy_rhs: call_init: 2.781 [ms]
[OGL LOG][Proc: 0]Uy_solution: call_init: 0.8260000000000001 [ms]
[OGL LOG][Preconditioner.H:121] Generate preconditioner BJ MaxBlockSize 1
[OGL LOG][Proc: 0]Uy: init_precond: 0.419 [ms]
[OGL LOG][StoppingCriterion.H:373] Creating stopping criterion with minIter 0 frequency 1
[OGL LOG][Proc: 0]Uy: generate_solver: 0.001 [ms]
[OGL LOG][Proc: 0]Uy: solve: 201.031 [ms]
[OGL LOG][Proc: 0]Uy: copy_x_back: 1.074 [ms]
[OGL LOG][lduLduBase.H:336] 
Statistics:
	Time per iteration: 3865 [mu s]
	Time per residual norm calculation: 241.000000 [mu s]
	Time per iteration and DOF: 0.612798 [ns]
	Retrieve results bandwidth 1.941000 [GByte/s]
[OGL LOG][Proc: 0]Uy: solve_multi_gpu: 269.26 [ms]
BJhipGKOBiCGStab:  Solving for Uy, Initial residual = 0.999999999999999, Final residual = 0.06026402396585407, No Iterations 52
[OGL LOG][lduLduBase.H:119] Initialising OGL
	OGL commit:  4647ee1+
	Branch: PersistentDeviceIdGuard 
	Build type: Release
	Ginkgo version: 1.5.0 ( develop)
	Ginkgo commit: 4292ffdee
	MPI is GPU aware: 1
	Forces host buffer based communication: 0
	CPU ranks per GPU: 1
	Matrix format: Coo
	End OGL_INFO
[OGL LOG][Proc: 0]: global_index_init: 14.354 [ms]
[OGL LOG][Proc: 0]Uz_local_cols: call_init: 0.005 [ms]
[OGL LOG][Proc: 0]Uz_local_rows: call_init: 0.003 [ms]
[OGL LOG][Proc: 0]Uz_local_ldu_map: call_init: 0.003 [ms]
[OGL LOG][Proc: 0]Uz_local_coeffs: call_init: 0.003 [ms]
[OGL LOG][Proc: 0]Uz_non_local_cols: call_init: 0.003 [ms]
[OGL LOG][Proc: 0]Uz_non_local_rows: call_init: 0.003 [ms]
[OGL LOG][Proc: 0]Uz_non_local_ldu_map: call_init: 0.002 [ms]
[OGL LOG][Proc: 0]Uz_non_local_coeffs: call_init: 0.003 [ms]
[OGL LOG][Proc: 0]Uz: init_local_sparsity_pattern: 69.042 [ms]
[OGL LOG][Proc: 0]Uz: init_non_local_sparsity_pattern: 1.019 [ms]
[OGL LOG][Proc: 0]Uz: update_local_matrix_data: 8.936 [ms]
[OGL LOG][Proc: 0]Uz: update_non_local_matrix_data: 0.128 [ms]
[OGL LOG][Proc: 0]Uz_matrix: call_init: 60.72 [ms]
[OGL LOG][Proc: 0]Uz_rhs: call_init: 3.4 [ms]
[OGL LOG][Proc: 0]Uz_solution: call_init: 4.495 [ms]
[OGL LOG][Preconditioner.H:121] Generate preconditioner BJ MaxBlockSize 1
[OGL LOG][Proc: 0]Uz: init_precond: 0.315 [ms]
[OGL LOG][StoppingCriterion.H:373] Creating stopping criterion with minIter 0 frequency 1
[OGL LOG][Proc: 0]Uz: generate_solver: 0.001 [ms]
[OGL LOG][Proc: 0]Uz: solve: 48.673 [ms]
[OGL LOG][Proc: 0]Uz: copy_x_back: 1.07 [ms]
[OGL LOG][lduLduBase.H:336] 
Statistics:
	Time per iteration: 48673 [mu s]
	Time per residual norm calculation: 299.000000 [mu s]
	Time per iteration and DOF: 7.717132 [ns]
	Retrieve results bandwidth 1.948000 [GByte/s]
[OGL LOG][Proc: 0]Uz: solve_multi_gpu: 119.313 [ms]
BJhipGKOBiCGStab:  Solving for Uz, Initial residual = 1.000000000000014, Final residual = 0.09952964467305336, No Iterations 1
[INFO] MomentumPredictor: 2792.783 [ms]
[INFO] MatrixAssemblyPI: 80.122 [ms]
[INFO] MatrixAssemblyPII: 38.173 [ms]
[OGL LOG][lduLduBase.H:119] Initialising OGL
	OGL commit:  4647ee1+
	Branch: PersistentDeviceIdGuard 
	Build type: Release
	Ginkgo version: 1.5.0 ( develop)
	Ginkgo commit: 4292ffdee
	MPI is GPU aware: 1
	Forces host buffer based communication: 0
	CPU ranks per GPU: 1
	Matrix format: Coo
	End OGL_INFO
[OGL LOG][Proc: 0]: global_index_init: 0.391 [ms]
[OGL LOG][Proc: 0]p_local_cols: call_init: 0.005 [ms]
[OGL LOG][Proc: 0]p_local_rows: call_init: 0.003 [ms]
[OGL LOG][Proc: 0]p_local_ldu_map: call_init: 0.002 [ms]
[OGL LOG][Proc: 0]p_local_coeffs: call_init: 0.003 [ms]
[OGL LOG][Proc: 0]p_non_local_cols: call_init: 0.003 [ms]
[OGL LOG][Proc: 0]p_non_local_rows: call_init: 0.003 [ms]
[OGL LOG][Proc: 0]p_non_local_ldu_map: call_init: 0.003 [ms]
[OGL LOG][Proc: 0]p_non_local_coeffs: call_init: 0.003 [ms]
[OGL LOG][Proc: 0]p: init_local_sparsity_pattern: 64.417 [ms]
[OGL LOG][Proc: 0]p: init_non_local_sparsity_pattern: 0.977 [ms]
[OGL LOG][Proc: 0]p: update_local_matrix_data: 8.976000000000001 [ms]
[OGL LOG][Proc: 0]p: update_non_local_matrix_data: 0.104 [ms]
[OGL LOG][Proc: 0]p_matrix: call_init: 60.601 [ms]
[OGL LOG][Proc: 0]p_rhs: call_init: 5.23 [ms]
[OGL LOG][Proc: 0]p_solution: call_init: 4.821 [ms]
[OGL LOG][Preconditioner.H:121] Generate preconditioner BJ MaxBlockSize 1
[OGL LOG][Proc: 0]p: init_precond: 0.309 [ms]
[OGL LOG][StoppingCriterion.H:373] Creating stopping criterion with minIter 0 frequency 1
[OGL LOG][Proc: 0]p: generate_solver: 0.028 [ms]
[OGL LOG][Proc: 0]p: solve: 1903.267 [ms]
[OGL LOG][Proc: 0]p: copy_x_back: 1.416 [ms]
[OGL LOG][lduLduBase.H:336] 
Statistics:
	Time per iteration: 1630 [mu s]
	Time per residual norm calculation: 223.000000 [mu s]
	Time per iteration and DOF: 0.258437 [ns]
	Retrieve results bandwidth 1.472000 [GByte/s]
[OGL LOG][Proc: 0]p: solve_multi_gpu: 1976.036 [ms]
BJhipGKOCG:  Solving for p, Initial residual = 1.000000000000141, Final residual = 0.009993398397465568, No Iterations 1167
[INFO] SolveP: 2053.613 [ms]
time step continuity errors : sum local = 0.003675484040760168, global = 4.654268775783968e-05, cumulative = 4.654268775783968e-05
[INFO] postSolveP: 22.319 [ms]
[OGL LOG][lduLduBase.H:119] Initialising OGL
	OGL commit:  4647ee1+
	Branch: PersistentDeviceIdGuard 
	Build type: Release
	Ginkgo version: 1.5.0 ( develop)
	Ginkgo commit: 4292ffdee
	MPI is GPU aware: 1
	Forces host buffer based communication: 0
	CPU ranks per GPU: 1
	Matrix format: Coo
	End OGL_INFO
[OGL LOG][Proc: 0]: global_index_init: 6.538 [ms]
[OGL LOG][Proc: 0]nuTilda_local_cols: call_init: 0.007 [ms]
[OGL LOG][Proc: 0]nuTilda_local_rows: call_init: 0.004 [ms]
[OGL LOG][Proc: 0]nuTilda_local_ldu_map: call_init: 0.003 [ms]
[OGL LOG][Proc: 0]nuTilda_local_coeffs: call_init: 0.003 [ms]
[OGL LOG][Proc: 0]nuTilda_non_local_cols: call_init: 0.003 [ms]
[OGL LOG][Proc: 0]nuTilda_non_local_rows: call_init: 0.003 [ms]
[OGL LOG][Proc: 0]nuTilda_non_local_ldu_map: call_init: 0.003 [ms]
[OGL LOG][Proc: 0]nuTilda_non_local_coeffs: call_init: 0.003 [ms]
[OGL LOG][Proc: 0]nuTilda: init_local_sparsity_pattern: 64.032 [ms]
[OGL LOG][Proc: 0]nuTilda: init_non_local_sparsity_pattern: 1.013 [ms]
[OGL LOG][Proc: 0]nuTilda: update_local_matrix_data: 12.666 [ms]
[OGL LOG][Proc: 0]nuTilda: update_non_local_matrix_data: 0.142 [ms]
[OGL LOG][Proc: 0]nuTilda_matrix: call_init: 48.206 [ms]
[OGL LOG][Proc: 0]nuTilda_rhs: call_init: 3.396 [ms]
[OGL LOG][Proc: 0]nuTilda_solution: call_init: 0.755 [ms]
[OGL LOG][Preconditioner.H:121] Generate preconditioner BJ MaxBlockSize 1
[OGL LOG][Proc: 0]nuTilda: init_precond: 0.253 [ms]
[OGL LOG][StoppingCriterion.H:373] Creating stopping criterion with minIter 0 frequency 1
[OGL LOG][Proc: 0]nuTilda: generate_solver: 0.001 [ms]
[OGL LOG][Proc: 0]nuTilda: solve: 52.746 [ms]
[OGL LOG][Proc: 0]nuTilda: copy_x_back: 1.08 [ms]
[OGL LOG][lduLduBase.H:336] 
Statistics:
	Time per iteration: 26373 [mu s]
	Time per residual norm calculation: 227.000000 [mu s]
	Time per iteration and DOF: 4.181454 [ns]
	Retrieve results bandwidth 1.930000 [GByte/s]
[OGL LOG][Proc: 0]nuTilda: solve_multi_gpu: 106.865 [ms]
BJhipGKOBiCGStab:  Solving for nuTilda, Initial residual = 0.9999999999983934, Final residual = 0.09391453542444045, No Iterations 2
[INFO] TimeStep: 5901.423 [ms]
ExecutionTime = 11.47 s  ClockTime = 12 s

--> FOAM Warning : 
    From virtual bool Foam::functionObjects::fieldSelection::checkSelection()
    in file functionObjects/fieldSelections/fieldSelection/fieldSelection.C at line 166
    Field k not found
--> FOAM Warning : 
    From virtual bool Foam::functionObjects::fieldSelection::checkSelection()
    in file functionObjects/fieldSelections/fieldSelection/fieldSelection.C at line 166
    Field gammaInt not found
--> FOAM Warning : 
    From virtual bool Foam::functionObjects::fieldSelection::checkSelection()
    in file functionObjects/fieldSelections/fieldSelection/fieldSelection.C at line 166
    Field omega not found
--> FOAM Warning : 
    From virtual bool Foam::functionObjects::fieldSelection::checkSelection()
    in file functionObjects/fieldSelections/fieldSelection/fieldSelection.C at line 166
    Field ReThetat not found
--> FOAM Warning : 
    From virtual bool Foam::functionObjects::fieldSelection::checkSelection()
    in file functionObjects/fieldSelections/fieldSelection/fieldSelection.C at line 166
    Field epsilon not found
--> FOAM Warning : 
    From virtual bool Foam::functionObjects::solverFieldSelection::updateSelection()
    in file functionObjects/fieldSelections/solverFieldSelection/solverFieldSelection.C at line 85
    Valid solver fields are: 3(U nuTilda p)Time = 2

velocityDampingConstraint velocityDamping damped 0 (0%) of cells, with max limit 300
[INFO] MatrixAssemblyU: 440.638 [ms]
[OGL LOG][Proc: 0]: global_index_init: 0.989 [ms]
[OGL LOG][Proc: 0]Ux_local_coeffs: call_update: 0.002 [ms]
[OGL LOG][Proc: 0]Ux_non_local_coeffs: call_update: 0 [ms]
[OGL LOG][Proc: 0]Ux: update_local_matrix_data: 10.355 [ms]
[OGL LOG][Proc: 0]Ux: update_non_local_matrix_data: 0.091 [ms]
[OGL LOG][Proc: 0]Ux_matrix: call_update: 3.234 [ms]
[OGL LOG][Proc: 0]Ux_rhs: call_update: 2.148 [ms]
[OGL LOG][Preconditioner.H:121] Generate preconditioner BJ MaxBlockSize 1
[OGL LOG][Proc: 0]Ux: init_precond: 0.345 [ms]
[OGL LOG][StoppingCriterion.H:373] Creating stopping criterion with minIter 28 frequency 1
[OGL LOG][Proc: 0]Ux: generate_solver: 0.001 [ms]
[OGL LOG][Proc: 0]Ux: solve: 67.274 [ms]
[OGL LOG][Proc: 0]Ux: copy_x_back: 1.275 [ms]
[OGL LOG][lduLduBase.H:336] 
Statistics:
	Time per iteration: 4805 [mu s]
	Time per residual norm calculation: 232.000000 [mu s]
	Time per iteration and DOF: 0.761835 [ns]
	Retrieve results bandwidth 1.635000 [GByte/s]
[OGL LOG][Proc: 0]Ux: solve_multi_gpu: 74.70100000000001 [ms]
BJhipGKOBiCGStab:  Solving for Ux, Initial residual = 0.6035573849829554, Final residual = 0.03520491469890708, No Iterations 14
[OGL LOG][Proc: 0]: global_index_init: 0.68 [ms]
[OGL LOG][Proc: 0]Uy_local_coeffs: call_update: 0 [ms]
[OGL LOG][Proc: 0]Uy_non_local_coeffs: call_update: 0 [ms]
[OGL LOG][Proc: 0]Uy: update_local_matrix_data: 10.883 [ms]
[OGL LOG][Proc: 0]Uy: update_non_local_matrix_data: 0.08500000000000001 [ms]
[OGL LOG][Proc: 0]Uy_matrix: call_update: 2.476 [ms]
[OGL LOG][Proc: 0]Uy_rhs: call_update: 3.342 [ms]
[OGL LOG][Preconditioner.H:121] Generate preconditioner BJ MaxBlockSize 1
[OGL LOG][Proc: 0]Uy: init_precond: 0.255 [ms]
[OGL LOG][StoppingCriterion.H:373] Creating stopping criterion with minIter 62 frequency 1
[OGL LOG][Proc: 0]Uy: generate_solver: 0.001 [ms]
[OGL LOG][Proc: 0]Uy: solve: 92.5 [ms]
[OGL LOG][Proc: 0]Uy: copy_x_back: 1.066 [ms]
[OGL LOG][lduLduBase.H:336] 
Statistics:
	Time per iteration: 2983 [mu s]
	Time per residual norm calculation: 238.000000 [mu s]
	Time per iteration and DOF: 0.472956 [ns]
	Retrieve results bandwidth 1.956000 [GByte/s]
[OGL LOG][Proc: 0]Uy: solve_multi_gpu: 100.005 [ms]
BJhipGKOBiCGStab:  Solving for Uy, Initial residual = 0.9970049392648639, Final residual = 0.00169572728085868, No Iterations 31
[OGL LOG][Proc: 0]: global_index_init: 0.146 [ms]
[OGL LOG][Proc: 0]Uz_local_coeffs: call_update: 0 [ms]
[OGL LOG][Proc: 0]Uz_non_local_coeffs: call_update: 0 [ms]
[OGL LOG][Proc: 0]Uz: update_local_matrix_data: 12.625 [ms]
[OGL LOG][Proc: 0]Uz: update_non_local_matrix_data: 0.066 [ms]
[OGL LOG][Proc: 0]Uz_matrix: call_update: 2.772 [ms]
[OGL LOG][Proc: 0]Uz_rhs: call_update: 1.214 [ms]
[OGL LOG][Preconditioner.H:121] Generate preconditioner BJ MaxBlockSize 1
[OGL LOG][Proc: 0]Uz: init_precond: 0.308 [ms]
[OGL LOG][StoppingCriterion.H:373] Creating stopping criterion with minIter 1 frequency 1
[OGL LOG][Proc: 0]Uz: generate_solver: 0.001 [ms]
[OGL LOG][Proc: 0]Uz: solve: 53.956 [ms]
[OGL LOG][Proc: 0]Uz: copy_x_back: 1.065 [ms]
[OGL LOG][lduLduBase.H:336] 
Statistics:
	Time per iteration: 4905 [mu s]
	Time per residual norm calculation: 229.000000 [mu s]
	Time per iteration and DOF: 0.777691 [ns]
	Retrieve results bandwidth 1.958000 [GByte/s]
[OGL LOG][Proc: 0]Uz: solve_multi_gpu: 59.668 [ms]
BJhipGKOBiCGStab:  Solving for Uz, Initial residual = 0.9999664762019395, Final residual = 0.07548054662442213, No Iterations 11
[INFO] MomentumPredictor: 309.663 [ms]
[INFO] MatrixAssemblyPI: 81.306 [ms]
[INFO] MatrixAssemblyPII: 36.644 [ms]
[OGL LOG][Proc: 0]: global_index_init: 0.19 [ms]
[OGL LOG][Proc: 0]p_local_coeffs: call_update: 0 [ms]
[OGL LOG][Proc: 0]p_non_local_coeffs: call_update: 0 [ms]
[OGL LOG][Proc: 0]p: update_local_matrix_data: 10.732 [ms]
[OGL LOG][Proc: 0]p: update_non_local_matrix_data: 0.093 [ms]
[OGL LOG][Proc: 0]p_matrix: call_update: 2.655 [ms]
[OGL LOG][Proc: 0]p_rhs: call_update: 4.438 [ms]
[OGL LOG][Preconditioner.H:121] Generate preconditioner BJ MaxBlockSize 1
[OGL LOG][Proc: 0]p: init_precond: 0.329 [ms]
[OGL LOG][StoppingCriterion.H:373] Creating stopping criterion with minIter 700 frequency 8
[OGL LOG][Proc: 0]p: generate_solver: 0.001 [ms]
[OGL LOG][Proc: 0]p: solve: 1224.251 [ms]
[OGL LOG][Proc: 0]p: copy_x_back: 1.105 [ms]
[OGL LOG][lduLduBase.H:336] 
Statistics:
	Time per iteration: 1295 [mu s]
	Time per residual norm calculation: 223.000000 [mu s]
	Time per iteration and DOF: 0.205323 [ns]
	Retrieve results bandwidth 1.887000 [GByte/s]
[OGL LOG][Proc: 0]p: solve_multi_gpu: 1233.053 [ms]
BJhipGKOCG:  Solving for p, Initial residual = 0.2220025328743331, Final residual = 0.002211893516454337, No Iterations 945
[INFO] SolveP: 1246.082 [ms]
time step continuity errors : sum local = 0.0456823228050401, global = 0.002116046070477258, cumulative = 0.002162588758235098
[INFO] postSolveP: 21.948 [ms]
[OGL LOG][Proc: 0]: global_index_init: 7.172 [ms]
[OGL LOG][Proc: 0]nuTilda_local_coeffs: call_update: 0 [ms]
[OGL LOG][Proc: 0]nuTilda_non_local_coeffs: call_update: 0 [ms]
[OGL LOG][Proc: 0]nuTilda: update_local_matrix_data: 11.964 [ms]
[OGL LOG][Proc: 0]nuTilda: update_non_local_matrix_data: 0.08700000000000001 [ms]
[OGL LOG][Proc: 0]nuTilda_matrix: call_update: 2.491 [ms]
[OGL LOG][Proc: 0]nuTilda_rhs: call_update: 2.408 [ms]
[OGL LOG][Preconditioner.H:121] Generate preconditioner BJ MaxBlockSize 1
[OGL LOG][Proc: 0]nuTilda: init_precond: 0.263 [ms]
[OGL LOG][StoppingCriterion.H:373] Creating stopping criterion with minIter 3 frequency 1
[OGL LOG][Proc: 0]nuTilda: generate_solver: 0 [ms]
[OGL LOG][Proc: 0]nuTilda: solve: 26.421 [ms]
[OGL LOG][Proc: 0]nuTilda: copy_x_back: 1.075 [ms]
[OGL LOG][lduLduBase.H:336] 
Statistics:
	Time per iteration: 13210 [mu s]
	Time per residual norm calculation: 237.000000 [mu s]
	Time per iteration and DOF: 2.094453 [ns]
	Retrieve results bandwidth 1.939000 [GByte/s]
[OGL LOG][Proc: 0]nuTilda: solve_multi_gpu: 33.027 [ms]
BJhipGKOBiCGStab:  Solving for nuTilda, Initial residual = 0.4033291921466006, Final residual = 0.006136987237145747, No Iterations 2
[INFO] TimeStep: 2434.623 [ms]
ExecutionTime = 14.24 s  ClockTime = 14 s

Time = 3

velocityDampingConstraint velocityDamping damped 890 (0.01%) of cells, with max limit 300
[INFO] MatrixAssemblyU: 463.759 [ms]
[OGL LOG][Proc: 0]: global_index_init: 0.8150000000000001 [ms]
[OGL LOG][Proc: 0]Ux_local_coeffs: call_update: 0 [ms]
[OGL LOG][Proc: 0]Ux_non_local_coeffs: call_update: 0 [ms]
[OGL LOG][Proc: 0]Ux: update_local_matrix_data: 10.512 [ms]
[OGL LOG][Proc: 0]Ux: update_non_local_matrix_data: 0.089 [ms]
[OGL LOG][Proc: 0]Ux_matrix: call_update: 2.496 [ms]
[OGL LOG][Proc: 0]Ux_rhs: call_update: 2.536 [ms]
[OGL LOG][Preconditioner.H:121] Generate preconditioner BJ MaxBlockSize 1
[OGL LOG][Proc: 0]Ux: init_precond: 0.288 [ms]
[OGL LOG][StoppingCriterion.H:373] Creating stopping criterion with minIter 17 frequency 1
[OGL LOG][Proc: 0]Ux: generate_solver: 0.001 [ms]
[OGL LOG][Proc: 0]Ux: solve: 58.828 [ms]
[OGL LOG][Proc: 0]Ux: copy_x_back: 1.065 [ms]
[OGL LOG][lduLduBase.H:336] 
Statistics:
	Time per iteration: 4202 [mu s]
	Time per residual norm calculation: 239.000000 [mu s]
	Time per iteration and DOF: 0.666229 [ns]
	Retrieve results bandwidth 1.958000 [GByte/s]
[OGL LOG][Proc: 0]Ux: solve_multi_gpu: 65.586 [ms]
BJhipGKOBiCGStab:  Solving for Ux, Initial residual = 0.1297742441810812, Final residual = 0.005914047883040413, No Iterations 14
[OGL LOG][Proc: 0]: global_index_init: 0.25 [ms]
[OGL LOG][Proc: 0]Uy_local_coeffs: call_update: 0 [ms]
[OGL LOG][Proc: 0]Uy_non_local_coeffs: call_update: 0 [ms]
[OGL LOG][Proc: 0]Uy: update_local_matrix_data: 10.417 [ms]
[OGL LOG][Proc: 0]Uy: update_non_local_matrix_data: 0.076 [ms]
[OGL LOG][Proc: 0]Uy_matrix: call_update: 2.389 [ms]
[OGL LOG][Proc: 0]Uy_rhs: call_update: 3.023 [ms]
[OGL LOG][Preconditioner.H:121] Generate preconditioner BJ MaxBlockSize 1
[OGL LOG][Proc: 0]Uy: init_precond: 0.255 [ms]
[OGL LOG][StoppingCriterion.H:373] Creating stopping criterion with minIter 37 frequency 1
[OGL LOG][Proc: 0]Uy: generate_solver: 0.001 [ms]
[OGL LOG][Proc: 0]Uy: solve: 79.346 [ms]
[OGL LOG][Proc: 0]Uy: copy_x_back: 1.068 [ms]
[OGL LOG][lduLduBase.H:336] 
Statistics:
	Time per iteration: 4176 [mu s]
	Time per residual norm calculation: 239.000000 [mu s]
	Time per iteration and DOF: 0.662107 [ns]
	Retrieve results bandwidth 1.952000 [GByte/s]
[OGL LOG][Proc: 0]Uy: solve_multi_gpu: 86.449 [ms]
BJhipGKOBiCGStab:  Solving for Uy, Initial residual = 0.3034131639800172, Final residual = 0.01386043309568556, No Iterations 19
[OGL LOG][Proc: 0]: global_index_init: 0.123 [ms]
[OGL LOG][Proc: 0]Uz_local_coeffs: call_update: 0 [ms]
[OGL LOG][Proc: 0]Uz_non_local_coeffs: call_update: 0 [ms]
[OGL LOG][Proc: 0]Uz: update_local_matrix_data: 10.79 [ms]
[OGL LOG][Proc: 0]Uz: update_non_local_matrix_data: 0.083 [ms]
[OGL LOG][Proc: 0]Uz_matrix: call_update: 2.297 [ms]
[OGL LOG][Proc: 0]Uz_rhs: call_update: 2.641 [ms]
[OGL LOG][Preconditioner.H:121] Generate preconditioner BJ MaxBlockSize 1
[OGL LOG][Proc: 0]Uz: init_precond: 0.257 [ms]
[OGL LOG][StoppingCriterion.H:373] Creating stopping criterion with minIter 13 frequency 1
[OGL LOG][Proc: 0]Uz: generate_solver: 0.001 [ms]
[OGL LOG][Proc: 0]Uz: solve: 52.329 [ms]
[OGL LOG][Proc: 0]Uz: copy_x_back: 1.069 [ms]
[OGL LOG][lduLduBase.H:336] 
Statistics:
	Time per iteration: 4025 [mu s]
	Time per residual norm calculation: 234.000000 [mu s]
	Time per iteration and DOF: 0.638166 [ns]
	Retrieve results bandwidth 1.950000 [GByte/s]
[OGL LOG][Proc: 0]Uz: solve_multi_gpu: 58.953 [ms]
BJhipGKOBiCGStab:  Solving for Uz, Initial residual = 0.2927866878475181, Final residual = 0.02143493322382786, No Iterations 13
[INFO] MomentumPredictor: 282.417 [ms]
[INFO] MatrixAssemblyPI: 78.879 [ms]
[INFO] MatrixAssemblyPII: 36.734 [ms]
[OGL LOG][Proc: 0]: global_index_init: 0.29 [ms]
[OGL LOG][Proc: 0]p_local_coeffs: call_update: 0 [ms]
[OGL LOG][Proc: 0]p_non_local_coeffs: call_update: 0 [ms]
[OGL LOG][Proc: 0]p: update_local_matrix_data: 10.793 [ms]
[OGL LOG][Proc: 0]p: update_non_local_matrix_data: 0.078 [ms]
[OGL LOG][Proc: 0]p_matrix: call_update: 2.585 [ms]
[OGL LOG][Proc: 0]p_rhs: call_update: 2.543 [ms]
[OGL LOG][Preconditioner.H:121] Generate preconditioner BJ MaxBlockSize 1
[OGL LOG][Proc: 0]p: init_precond: 0.254 [ms]
[OGL LOG][StoppingCriterion.H:373] Creating stopping criterion with minIter 567 frequency 8
[OGL LOG][Proc: 0]p: generate_solver: 0.001 [ms]
[OGL LOG][Proc: 0]p: solve: 1274.815 [ms]
[OGL LOG][Proc: 0]p: copy_x_back: 1.123 [ms]
[OGL LOG][lduLduBase.H:336] 
Statistics:
	Time per iteration: 1360 [mu s]
	Time per residual norm calculation: 228.000000 [mu s]
	Time per iteration and DOF: 0.215629 [ns]
	Retrieve results bandwidth 1.856000 [GByte/s]
[OGL LOG][Proc: 0]p: solve_multi_gpu: 1281.615 [ms]
BJhipGKOCG:  Solving for p, Initial residual = 0.1625704466342511, Final residual = 0.00152519433292151, No Iterations 937
[INFO] SolveP: 1294.606 [ms]
time step continuity errors : sum local = 0.01677200582709023, global = 6.094203448426267e-05, cumulative = 0.00222353079271936
[INFO] postSolveP: 20.6 [ms]
[OGL LOG][Proc: 0]: global_index_init: 5.691 [ms]
[OGL LOG][Proc: 0]nuTilda_local_coeffs: call_update: 0 [ms]
[OGL LOG][Proc: 0]nuTilda_non_local_coeffs: call_update: 0 [ms]
[OGL LOG][Proc: 0]nuTilda: update_local_matrix_data: 11.105 [ms]
[OGL LOG][Proc: 0]nuTilda: update_non_local_matrix_data: 0.105 [ms]
[OGL LOG][Proc: 0]nuTilda_matrix: call_update: 5.234 [ms]
[OGL LOG][Proc: 0]nuTilda_rhs: call_update: 0.505 [ms]
[OGL LOG][Preconditioner.H:121] Generate preconditioner BJ MaxBlockSize 1
[OGL LOG][Proc: 0]nuTilda: init_precond: 0.255 [ms]
[OGL LOG][StoppingCriterion.H:373] Creating stopping criterion with minIter 2 frequency 1
[OGL LOG][Proc: 0]nuTilda: generate_solver: 0.001 [ms]
[OGL LOG][Proc: 0]nuTilda: solve: 29.09 [ms]
[OGL LOG][Proc: 0]nuTilda: copy_x_back: 1.081 [ms]
[OGL LOG][lduLduBase.H:336] 
Statistics:
	Time per iteration: 14545 [mu s]
	Time per residual norm calculation: 242.000000 [mu s]
	Time per iteration and DOF: 2.306118 [ns]
	Retrieve results bandwidth 1.929000 [GByte/s]
[OGL LOG][Proc: 0]nuTilda: solve_multi_gpu: 36.545 [ms]
BJhipGKOBiCGStab:  Solving for nuTilda, Initial residual = 0.1886645401582807, Final residual = 0.01594684460095069, No Iterations 2
bounding nuTilda, min: -5.435325815347716e-05 max: 0.0009003924509521451 average: 8.029985246617889e-05
[INFO] TimeStep: 2492.329 [ms]
ExecutionTime = 17.09 s  ClockTime = 17 s

Time = 4

velocityDampingConstraint velocityDamping damped 0 (0%) of cells, with max limit 300
[INFO] MatrixAssemblyU: 470.653 [ms]
[OGL LOG][Proc: 0]: global_index_init: 0.89 [ms]
[OGL LOG][Proc: 0]Ux_local_coeffs: call_update: 0 [ms]
[OGL LOG][Proc: 0]Ux_non_local_coeffs: call_update: 0 [ms]
[OGL LOG][Proc: 0]Ux: update_local_matrix_data: 10.274 [ms]
[OGL LOG][Proc: 0]Ux: update_non_local_matrix_data: 0.092 [ms]
[OGL LOG][Proc: 0]Ux_matrix: call_update: 2.463 [ms]
[OGL LOG][Proc: 0]Ux_rhs: call_update: 3.267 [ms]
[OGL LOG][Preconditioner.H:121] Generate preconditioner BJ MaxBlockSize 1
[OGL LOG][Proc: 0]Ux: init_precond: 0.273 [ms]
[OGL LOG][StoppingCriterion.H:373] Creating stopping criterion with minIter 16 frequency 1
[OGL LOG][Proc: 0]Ux: generate_solver: 0.001 [ms]
[OGL LOG][Proc: 0]Ux: solve: 55.967 [ms]
[OGL LOG][Proc: 0]Ux: copy_x_back: 1.075 [ms]
[OGL LOG][lduLduBase.H:336] 
Statistics:
	Time per iteration: 5596 [mu s]
	Time per residual norm calculation: 223.000000 [mu s]
	Time per iteration and DOF: 0.887249 [ns]
	Retrieve results bandwidth 1.939000 [GByte/s]
[OGL LOG][Proc: 0]Ux: solve_multi_gpu: 63.407 [ms]
BJhipGKOBiCGStab:  Solving for Ux, Initial residual = 0.08068876304851252, Final residual = 0.007180405045479401, No Iterations 10
[OGL LOG][Proc: 0]: global_index_init: 0.136 [ms]
[OGL LOG][Proc: 0]Uy_local_coeffs: call_update: 0 [ms]
[OGL LOG][Proc: 0]Uy_non_local_coeffs: call_update: 0 [ms]
[OGL LOG][Proc: 0]Uy: update_local_matrix_data: 10.096 [ms]
[OGL LOG][Proc: 0]Uy: update_non_local_matrix_data: 0.082 [ms]
[OGL LOG][Proc: 0]Uy_matrix: call_update: 3.29 [ms]
[OGL LOG][Proc: 0]Uy_rhs: call_update: 2.387 [ms]
[OGL LOG][Preconditioner.H:121] Generate preconditioner BJ MaxBlockSize 1
[OGL LOG][Proc: 0]Uy: init_precond: 0.254 [ms]
[OGL LOG][StoppingCriterion.H:373] Creating stopping criterion with minIter 22 frequency 1
[OGL LOG][Proc: 0]Uy: generate_solver: 0.001 [ms]
[OGL LOG][Proc: 0]Uy: solve: 63.136 [ms]
[OGL LOG][Proc: 0]Uy: copy_x_back: 1.08 [ms]
[OGL LOG][lduLduBase.H:336] 
Statistics:
	Time per iteration: 5261 [mu s]
	Time per residual norm calculation: 229.000000 [mu s]
	Time per iteration and DOF: 0.834135 [ns]
	Retrieve results bandwidth 1.930000 [GByte/s]
[OGL LOG][Proc: 0]Uy: solve_multi_gpu: 70.499 [ms]
BJhipGKOBiCGStab:  Solving for Uy, Initial residual = 0.1472887070160613, Final residual = 0.01213761791583289, No Iterations 12
[OGL LOG][Proc: 0]: global_index_init: 0.205 [ms]
[OGL LOG][Proc: 0]Uz_local_coeffs: call_update: 0 [ms]
[OGL LOG][Proc: 0]Uz_non_local_coeffs: call_update: 0 [ms]
[OGL LOG][Proc: 0]Uz: update_local_matrix_data: 9.849 [ms]
[OGL LOG][Proc: 0]Uz: update_non_local_matrix_data: 0.074 [ms]
[OGL LOG][Proc: 0]Uz_matrix: call_update: 3.392 [ms]
[OGL LOG][Proc: 0]Uz_rhs: call_update: 1.672 [ms]
[OGL LOG][Preconditioner.H:121] Generate preconditioner BJ MaxBlockSize 1
[OGL LOG][Proc: 0]Uz: init_precond: 0.257 [ms]
[OGL LOG][StoppingCriterion.H:373] Creating stopping criterion with minIter 15 frequency 1
[OGL LOG][Proc: 0]Uz: generate_solver: 0.001 [ms]
[OGL LOG][Proc: 0]Uz: solve: 48.564 [ms]
[OGL LOG][Proc: 0]Uz: copy_x_back: 1.073 [ms]
[OGL LOG][lduLduBase.H:336] 
Statistics:
	Time per iteration: 4856 [mu s]
	Time per residual norm calculation: 234.000000 [mu s]
	Time per iteration and DOF: 0.769922 [ns]
	Retrieve results bandwidth 1.943000 [GByte/s]
[OGL LOG][Proc: 0]Uz: solve_multi_gpu: 55.309 [ms]
BJhipGKOBiCGStab:  Solving for Uz, Initial residual = 0.215213110621692, Final residual = 0.0203240092720064, No Iterations 10
[INFO] MomentumPredictor: 259.385 [ms]
[INFO] MatrixAssemblyPI: 79.045 [ms]
[INFO] MatrixAssemblyPII: 37.007 [ms]
[OGL LOG][Proc: 0]: global_index_init: 0.595 [ms]
[OGL LOG][Proc: 0]p_local_coeffs: call_update: 0 [ms]
[OGL LOG][Proc: 0]p_non_local_coeffs: call_update: 0 [ms]
[OGL LOG][Proc: 0]p: update_local_matrix_data: 10.271 [ms]
[OGL LOG][Proc: 0]p: update_non_local_matrix_data: 0.128 [ms]
[OGL LOG][Proc: 0]p_matrix: call_update: 3.931 [ms]
[OGL LOG][Proc: 0]p_rhs: call_update: 3.532 [ms]
[OGL LOG][Preconditioner.H:121] Generate preconditioner BJ MaxBlockSize 1
[OGL LOG][Proc: 0]p: init_precond: 0.286 [ms]
[OGL LOG][StoppingCriterion.H:373] Creating stopping criterion with minIter 562 frequency 8
[OGL LOG][Proc: 0]p: generate_solver: 0.001 [ms]
[OGL LOG][Proc: 0]p: solve: 703.013 [ms]
[OGL LOG][Proc: 0]p: copy_x_back: 1.034 [ms]
[OGL LOG][lduLduBase.H:336] 
Statistics:
	Time per iteration: 1235 [mu s]
	Time per residual norm calculation: 248.000000 [mu s]
	Time per iteration and DOF: 0.195810 [ns]
	Retrieve results bandwidth 2.016000 [GByte/s]
[OGL LOG][Proc: 0]p: solve_multi_gpu: 712.038 [ms]
BJhipGKOCG:  Solving for p, Initial residual = 0.1266938999338458, Final residual = 0.001071925894365983, No Iterations 569
[INFO] SolveP: 725.147 [ms]
time step continuity errors : sum local = 0.01222037804738885, global = -0.001491770208117805, cumulative = 0.000731760584601555
[INFO] postSolveP: 19.588 [ms]
[OGL LOG][Proc: 0]: global_index_init: 11.005 [ms]
[OGL LOG][Proc: 0]nuTilda_local_coeffs: call_update: 0 [ms]
[OGL LOG][Proc: 0]nuTilda_non_local_coeffs: call_update: 0 [ms]
[OGL LOG][Proc: 0]nuTilda: update_local_matrix_data: 11.313 [ms]
[OGL LOG][Proc: 0]nuTilda: update_non_local_matrix_data: 0.07000000000000001 [ms]
[OGL LOG][Proc: 0]nuTilda_matrix: call_update: 3.15 [ms]
[OGL LOG][Proc: 0]nuTilda_rhs: call_update: 2.707 [ms]
[OGL LOG][Preconditioner.H:121] Generate preconditioner BJ MaxBlockSize 1
[OGL LOG][Proc: 0]nuTilda: init_precond: 0.252 [ms]
[OGL LOG][StoppingCriterion.H:373] Creating stopping criterion with minIter 2 frequency 1
[OGL LOG][Proc: 0]nuTilda: generate_solver: 0.001 [ms]
[OGL LOG][Proc: 0]nuTilda: solve: 30.362 [ms]
[OGL LOG][Proc: 0]nuTilda: copy_x_back: 1.076 [ms]
[OGL LOG][lduLduBase.H:336] 
Statistics:
	Time per iteration: 15181 [mu s]
	Time per residual norm calculation: 227.000000 [mu s]
	Time per iteration and DOF: 2.406956 [ns]
	Retrieve results bandwidth 1.938000 [GByte/s]
[OGL LOG][Proc: 0]nuTilda: solve_multi_gpu: 37.925 [ms]
BJhipGKOBiCGStab:  Solving for nuTilda, Initial residual = 0.108035651469303, Final residual = 0.005073636239976644, No Iterations 2
[INFO] TimeStep: 1894.873 [ms]
ExecutionTime = 19.34 s  ClockTime = 19 s

Time = 5

velocityDampingConstraint velocityDamping damped 84 (0%) of cells, with max limit 300
[INFO] MatrixAssemblyU: 462.319 [ms]
[OGL LOG][Proc: 0]: global_index_init: 0.87 [ms]
[OGL LOG][Proc: 0]Ux_local_coeffs: call_update: 0 [ms]
[OGL LOG][Proc: 0]Ux_non_local_coeffs: call_update: 0 [ms]
[OGL LOG][Proc: 0]Ux: update_local_matrix_data: 11.124 [ms]
[OGL LOG][Proc: 0]Ux: update_non_local_matrix_data: 0.082 [ms]
[OGL LOG][Proc: 0]Ux_matrix: call_update: 4.575 [ms]
[OGL LOG][Proc: 0]Ux_rhs: call_update: 2.298 [ms]
[OGL LOG][Preconditioner.H:121] Generate preconditioner BJ MaxBlockSize 1
[OGL LOG][Proc: 0]Ux: init_precond: 0.269 [ms]
[OGL LOG][StoppingCriterion.H:373] Creating stopping criterion with minIter 12 frequency 1
[OGL LOG][Proc: 0]Ux: generate_solver: 0.001 [ms]
[OGL LOG][Proc: 0]Ux: solve: 66.27 [ms]
[OGL LOG][Proc: 0]Ux: copy_x_back: 1.259 [ms]
[OGL LOG][lduLduBase.H:336] 
Statistics:
	Time per iteration: 6627 [mu s]
	Time per residual norm calculation: 238.000000 [mu s]
	Time per iteration and DOF: 1.050715 [ns]
	Retrieve results bandwidth 1.656000 [GByte/s]
[OGL LOG][Proc: 0]Ux: solve_multi_gpu: 75.235 [ms]
BJhipGKOBiCGStab:  Solving for Ux, Initial residual = 0.04999509695850769, Final residual = 0.004570167006158519, No Iterations 10
[OGL LOG][Proc: 0]: global_index_init: 0.155 [ms]
[OGL LOG][Proc: 0]Uy_local_coeffs: call_update: 0 [ms]
[OGL LOG][Proc: 0]Uy_non_local_coeffs: call_update: 0 [ms]
[OGL LOG][Proc: 0]Uy: update_local_matrix_data: 11.164 [ms]
[OGL LOG][Proc: 0]Uy: update_non_local_matrix_data: 0.077 [ms]
[OGL LOG][Proc: 0]Uy_matrix: call_update: 14.215 [ms]
[OGL LOG][Proc: 0]Uy_rhs: call_update: 2.02 [ms]
[OGL LOG][Preconditioner.H:121] Generate preconditioner BJ MaxBlockSize 1
[OGL LOG][Proc: 0]Uy: init_precond: 0.258 [ms]
[OGL LOG][StoppingCriterion.H:373] Creating stopping criterion with minIter 14 frequency 1
[OGL LOG][Proc: 0]Uy: generate_solver: 0 [ms]
[OGL LOG][Proc: 0]Uy: solve: 62.039 [ms]
[OGL LOG][Proc: 0]Uy: copy_x_back: 1.08 [ms]
[OGL LOG][lduLduBase.H:336] 
Statistics:
	Time per iteration: 5169 [mu s]
	Time per residual norm calculation: 232.000000 [mu s]
	Time per iteration and DOF: 0.819548 [ns]
	Retrieve results bandwidth 1.930000 [GByte/s]
[OGL LOG][Proc: 0]Uy: solve_multi_gpu: 79.96300000000001 [ms]
BJhipGKOBiCGStab:  Solving for Uy, Initial residual = 0.1187186325352073, Final residual = 0.008280284467262481, No Iterations 12
[OGL LOG][Proc: 0]: global_index_init: 0.052 [ms]
[OGL LOG][Proc: 0]Uz_local_coeffs: call_update: 0 [ms]
[OGL LOG][Proc: 0]Uz_non_local_coeffs: call_update: 0 [ms]
[OGL LOG][Proc: 0]Uz: update_local_matrix_data: 14.008 [ms]
[OGL LOG][Proc: 0]Uz: update_non_local_matrix_data: 0.089 [ms]
[OGL LOG][Proc: 0]Uz_matrix: call_update: 2.569 [ms]
[OGL LOG][Proc: 0]Uz_rhs: call_update: 0.5610000000000001 [ms]
[OGL LOG][Preconditioner.H:121] Generate preconditioner BJ MaxBlockSize 1
[OGL LOG][Proc: 0]Uz: init_precond: 0.253 [ms]
[OGL LOG][StoppingCriterion.H:373] Creating stopping criterion with minIter 12 frequency 1
[OGL LOG][Proc: 0]Uz: generate_solver: 0 [ms]
[OGL LOG][Proc: 0]Uz: solve: 59.594 [ms]
[OGL LOG][Proc: 0]Uz: copy_x_back: 1.057 [ms]
[OGL LOG][lduLduBase.H:336] 
Statistics:
	Time per iteration: 4966 [mu s]
	Time per residual norm calculation: 235.000000 [mu s]
	Time per iteration and DOF: 0.787362 [ns]
	Retrieve results bandwidth 1.972000 [GByte/s]
[OGL LOG][Proc: 0]Uz: solve_multi_gpu: 64.392 [ms]
BJhipGKOBiCGStab:  Solving for Uz, Initial residual = 0.1261185794044961, Final residual = 0.009714702530114422, No Iterations 12
[INFO] MomentumPredictor: 295.836 [ms]
[INFO] MatrixAssemblyPI: 83.40300000000001 [ms]
[INFO] MatrixAssemblyPII: 36.651 [ms]
[OGL LOG][Proc: 0]: global_index_init: 0.304 [ms]
[OGL LOG][Proc: 0]p_local_coeffs: call_update: 0 [ms]
[OGL LOG][Proc: 0]p_non_local_coeffs: call_update: 0 [ms]
[OGL LOG][Proc: 0]p: update_local_matrix_data: 11.287 [ms]
[OGL LOG][Proc: 0]p: update_non_local_matrix_data: 0.08799999999999999 [ms]
[OGL LOG][Proc: 0]p_matrix: call_update: 2.309 [ms]
[OGL LOG][Proc: 0]p_rhs: call_update: 2.911 [ms]
[OGL LOG][Preconditioner.H:121] Generate preconditioner BJ MaxBlockSize 1
[OGL LOG][Proc: 0]p: init_precond: 0.256 [ms]
[OGL LOG][StoppingCriterion.H:373] Creating stopping criterion with minIter 341 frequency 7
[OGL LOG][Proc: 0]p: generate_solver: 0.001 [ms]
[OGL LOG][Proc: 0]p: solve: 1062.327 [ms]
[OGL LOG][Proc: 0]p: copy_x_back: 1.061 [ms]
[OGL LOG][lduLduBase.H:336] 
Statistics:
	Time per iteration: 1284 [mu s]
	Time per residual norm calculation: 221.000000 [mu s]
	Time per iteration and DOF: 0.203579 [ns]
	Retrieve results bandwidth 1.965000 [GByte/s]
[OGL LOG][Proc: 0]p: solve_multi_gpu: 1069.145 [ms]
BJhipGKOCG:  Solving for p, Initial residual = 0.0989118469619958, Final residual = 0.0009209555187442785, No Iterations 827
[INFO] SolveP: 1082.796 [ms]
time step continuity errors : sum local = 0.008123822664718136, global = -0.0003530400820441755, cumulative = 0.0003787205025573795
[INFO] postSolveP: 19.886 [ms]
[OGL LOG][Proc: 0]: global_index_init: 7.283 [ms]
[OGL LOG][Proc: 0]nuTilda_local_coeffs: call_update: 0 [ms]
[OGL LOG][Proc: 0]nuTilda_non_local_coeffs: call_update: 0 [ms]
[OGL LOG][Proc: 0]nuTilda: update_local_matrix_data: 10.933 [ms]
[OGL LOG][Proc: 0]nuTilda: update_non_local_matrix_data: 0.093 [ms]
[OGL LOG][Proc: 0]nuTilda_matrix: call_update: 2.523 [ms]
[OGL LOG][Proc: 0]nuTilda_rhs: call_update: 4.5 [ms]
[OGL LOG][Preconditioner.H:121] Generate preconditioner BJ MaxBlockSize 1
[OGL LOG][Proc: 0]nuTilda: init_precond: 0.343 [ms]
[OGL LOG][StoppingCriterion.H:373] Creating stopping criterion with minIter 3 frequency 1
[OGL LOG][Proc: 0]nuTilda: generate_solver: 0.001 [ms]
[OGL LOG][Proc: 0]nuTilda: solve: 26.8 [ms]
[OGL LOG][Proc: 0]nuTilda: copy_x_back: 1.077 [ms]
[OGL LOG][lduLduBase.H:336] 
Statistics:
	Time per iteration: 13400 [mu s]
	Time per residual norm calculation: 238.000000 [mu s]
	Time per iteration and DOF: 2.124578 [ns]
	Retrieve results bandwidth 1.936000 [GByte/s]
[OGL LOG][Proc: 0]nuTilda: solve_multi_gpu: 35.602 [ms]
BJhipGKOBiCGStab:  Solving for nuTilda, Initial residual = 0.05862986265382944, Final residual = 0.004686182692181454, No Iterations 2
[INFO] TimeStep: 2279.133 [ms]
ExecutionTime = 21.97 s  ClockTime = 22 s

Time = 6

velocityDampingConstraint velocityDamping damped 0 (0%) of cells, with max limit 300
[INFO] MatrixAssemblyU: 453.901 [ms]
[OGL LOG][Proc: 0]: global_index_init: 1.2 [ms]
[OGL LOG][Proc: 0]Ux_local_coeffs: call_update: 0 [ms]
[OGL LOG][Proc: 0]Ux_non_local_coeffs: call_update: 0 [ms]
[OGL LOG][Proc: 0]Ux: update_local_matrix_data: 10.006 [ms]
[OGL LOG][Proc: 0]Ux: update_non_local_matrix_data: 0.08600000000000001 [ms]
[OGL LOG][Proc: 0]Ux_matrix: call_update: 2.839 [ms]
[OGL LOG][Proc: 0]Ux_rhs: call_update: 1.983 [ms]
[OGL LOG][Preconditioner.H:121] Generate preconditioner BJ MaxBlockSize 1
[OGL LOG][Proc: 0]Ux: init_precond: 0.292 [ms]
[OGL LOG][StoppingCriterion.H:373] Creating stopping criterion with minIter 12 frequency 1
[OGL LOG][Proc: 0]Ux: generate_solver: 0.001 [ms]
[OGL LOG][Proc: 0]Ux: solve: 49.988 [ms]
[OGL LOG][Proc: 0]Ux: copy_x_back: 1.079 [ms]
[OGL LOG][lduLduBase.H:336] 
Statistics:
	Time per iteration: 4165 [mu s]
	Time per residual norm calculation: 238.000000 [mu s]
	Time per iteration and DOF: 0.660363 [ns]
	Retrieve results bandwidth 1.932000 [GByte/s]
[OGL LOG][Proc: 0]Ux: solve_multi_gpu: 56.722 [ms]
BJhipGKOBiCGStab:  Solving for Ux, Initial residual = 0.02999965707006382, Final residual = 0.002279168340237584, No Iterations 12
[OGL LOG][Proc: 0]: global_index_init: 0.326 [ms]
[OGL LOG][Proc: 0]Uy_local_coeffs: call_update: 0 [ms]
[OGL LOG][Proc: 0]Uy_non_local_coeffs: call_update: 0 [ms]
[OGL LOG][Proc: 0]Uy: update_local_matrix_data: 9.714 [ms]
[OGL LOG][Proc: 0]Uy: update_non_local_matrix_data: 0.079 [ms]
[OGL LOG][Proc: 0]Uy_matrix: call_update: 3.216 [ms]
[OGL LOG][Proc: 0]Uy_rhs: call_update: 2.156 [ms]
[OGL LOG][Preconditioner.H:121] Generate preconditioner BJ MaxBlockSize 1
[OGL LOG][Proc: 0]Uy: init_precond: 0.291 [ms]
[OGL LOG][StoppingCriterion.H:373] Creating stopping criterion with minIter 14 frequency 1
[OGL LOG][Proc: 0]Uy: generate_solver: 0 [ms]
[OGL LOG][Proc: 0]Uy: solve: 65.458 [ms]
[OGL LOG][Proc: 0]Uy: copy_x_back: 1.056 [ms]
[OGL LOG][lduLduBase.H:336] 
Statistics:
	Time per iteration: 5950 [mu s]
	Time per residual norm calculation: 238.000000 [mu s]
	Time per iteration and DOF: 0.943376 [ns]
	Retrieve results bandwidth 1.974000 [GByte/s]
[OGL LOG][Proc: 0]Uy: solve_multi_gpu: 72.527 [ms]
BJhipGKOBiCGStab:  Solving for Uy, Initial residual = 0.08026196385349164, Final residual = 0.007398091193950344, No Iterations 11
[OGL LOG][Proc: 0]: global_index_init: 0.037 [ms]
[OGL LOG][Proc: 0]Uz_local_coeffs: call_update: 0 [ms]
[OGL LOG][Proc: 0]Uz_non_local_coeffs: call_update: 0 [ms]
[OGL LOG][Proc: 0]Uz: update_local_matrix_data: 9.996 [ms]
[OGL LOG][Proc: 0]Uz: update_non_local_matrix_data: 0.08799999999999999 [ms]
[OGL LOG][Proc: 0]Uz_matrix: call_update: 3.006 [ms]
[OGL LOG][Proc: 0]Uz_rhs: call_update: 4.442 [ms]
[OGL LOG][Preconditioner.H:121] Generate preconditioner BJ MaxBlockSize 1
[OGL LOG][Proc: 0]Uz: init_precond: 0.367 [ms]
[OGL LOG][StoppingCriterion.H:373] Creating stopping criterion with minIter 14 frequency 1
[OGL LOG][Proc: 0]Uz: generate_solver: 0 [ms]
[OGL LOG][Proc: 0]Uz: solve: 46.582 [ms]
[OGL LOG][Proc: 0]Uz: copy_x_back: 1.079 [ms]
[OGL LOG][lduLduBase.H:336] 
Statistics:
	Time per iteration: 4234 [mu s]
	Time per residual norm calculation: 232.000000 [mu s]
	Time per iteration and DOF: 0.671303 [ns]
	Retrieve results bandwidth 1.932000 [GByte/s]
[OGL LOG][Proc: 0]Uz: solve_multi_gpu: 55.826 [ms]
BJhipGKOBiCGStab:  Solving for Uz, Initial residual = 0.08768417053390114, Final residual = 0.008645823790266675, No Iterations 11
[INFO] MomentumPredictor: 254.954 [ms]
[INFO] MatrixAssemblyPI: 79.163 [ms]
[INFO] MatrixAssemblyPII: 36.876 [ms]
[OGL LOG][Proc: 0]: global_index_init: 0.301 [ms]
[OGL LOG][Proc: 0]p_local_coeffs: call_update: 0 [ms]
[OGL LOG][Proc: 0]p_non_local_coeffs: call_update: 0 [ms]
[OGL LOG][Proc: 0]p: update_local_matrix_data: 10.612 [ms]
[OGL LOG][Proc: 0]p: update_non_local_matrix_data: 0.081 [ms]
[OGL LOG][Proc: 0]p_matrix: call_update: 2.645 [ms]
[OGL LOG][Proc: 0]p_rhs: call_update: 2.141 [ms]
[OGL LOG][Preconditioner.H:121] Generate preconditioner BJ MaxBlockSize 1
[OGL LOG][Proc: 0]p: init_precond: 0.258 [ms]
[OGL LOG][StoppingCriterion.H:373] Creating stopping criterion with minIter 496 frequency 8
[OGL LOG][Proc: 0]p: generate_solver: 0.001 [ms]
[OGL LOG][Proc: 0]p: solve: 621.0940000000001 [ms]
[OGL LOG][Proc: 0]p: copy_x_back: 1.13 [ms]
[OGL LOG][lduLduBase.H:336] 
Statistics:
	Time per iteration: 1249 [mu s]
	Time per residual norm calculation: 251.000000 [mu s]
	Time per iteration and DOF: 0.198030 [ns]
	Retrieve results bandwidth 1.845000 [GByte/s]
[OGL LOG][Proc: 0]p: solve_multi_gpu: 627.506 [ms]
BJhipGKOCG:  Solving for p, Initial residual = 0.09481688641400095, Final residual = 0.0005109615592984446, No Iterations 497
[INFO] SolveP: 640.27 [ms]
time step continuity errors : sum local = 0.004072994010848398, global = 0.0006664426062620839, cumulative = 0.001045163108819463
[INFO] postSolveP: 20.226 [ms]
[OGL LOG][Proc: 0]: global_index_init: 5.858000000000001 [ms]
[OGL LOG][Proc: 0]nuTilda_local_coeffs: call_update: 0 [ms]
[OGL LOG][Proc: 0]nuTilda_non_local_coeffs: call_update: 0 [ms]
[OGL LOG][Proc: 0]nuTilda: update_local_matrix_data: 11.014 [ms]
[OGL LOG][Proc: 0]nuTilda: update_non_local_matrix_data: 0.098 [ms]
[OGL LOG][Proc: 0]nuTilda_matrix: call_update: 2.343 [ms]
[OGL LOG][Proc: 0]nuTilda_rhs: call_update: 2.359 [ms]
[OGL LOG][Preconditioner.H:121] Generate preconditioner BJ MaxBlockSize 1
[OGL LOG][Proc: 0]nuTilda: init_precond: 0.265 [ms]
[OGL LOG][StoppingCriterion.H:373] Creating stopping criterion with minIter 2 frequency 1
[OGL LOG][Proc: 0]nuTilda: generate_solver: 0.001 [ms]
[OGL LOG][Proc: 0]nuTilda: solve: 29.058 [ms]
[OGL LOG][Proc: 0]nuTilda: copy_x_back: 1.081 [ms]
[OGL LOG][lduLduBase.H:336] 
Statistics:
	Time per iteration: 14529 [mu s]
	Time per residual norm calculation: 223.000000 [mu s]
	Time per iteration and DOF: 2.303581 [ns]
	Retrieve results bandwidth 1.929000 [GByte/s]
[OGL LOG][Proc: 0]nuTilda: solve_multi_gpu: 35.474 [ms]
BJhipGKOBiCGStab:  Solving for nuTilda, Initial residual = 0.0593663274241738, Final residual = 0.003258896395944115, No Iterations 2
[INFO] TimeStep: 1777.073 [ms]
ExecutionTime = 24.1 s  ClockTime = 24 s

Time = 7

velocityDampingConstraint velocityDamping damped 4 (0%) of cells, with max limit 300
[INFO] MatrixAssemblyU: 450.363 [ms]
[OGL LOG][Proc: 0]: global_index_init: 1.071 [ms]
[OGL LOG][Proc: 0]Ux_local_coeffs: call_update: 0 [ms]
[OGL LOG][Proc: 0]Ux_non_local_coeffs: call_update: 0 [ms]
[OGL LOG][Proc: 0]Ux: update_local_matrix_data: 14.058 [ms]
[OGL LOG][Proc: 0]Ux: update_non_local_matrix_data: 0.09 [ms]
[OGL LOG][Proc: 0]Ux_matrix: call_update: 5.285 [ms]
[OGL LOG][Proc: 0]Ux_rhs: call_update: 0.239 [ms]
[OGL LOG][Preconditioner.H:121] Generate preconditioner BJ MaxBlockSize 1
[OGL LOG][Proc: 0]Ux: init_precond: 0.247 [ms]
[OGL LOG][StoppingCriterion.H:373] Creating stopping criterion with minIter 14 frequency 1
[OGL LOG][Proc: 0]Ux: generate_solver: 0.001 [ms]
[OGL LOG][Proc: 0]Ux: solve: 62.27 [ms]
[OGL LOG][Proc: 0]Ux: copy_x_back: 1.076 [ms]
[OGL LOG][lduLduBase.H:336] 
Statistics:
	Time per iteration: 6227 [mu s]
	Time per residual norm calculation: 222.000000 [mu s]
	Time per iteration and DOF: 0.987294 [ns]
	Retrieve results bandwidth 1.938000 [GByte/s]
[OGL LOG][Proc: 0]Ux: solve_multi_gpu: 69.477 [ms]
BJhipGKOBiCGStab:  Solving for Ux, Initial residual = 0.02324352621056066, Final residual = 0.002296667740489595, No Iterations 10
[OGL LOG][Proc: 0]: global_index_init: 0.022 [ms]
[OGL LOG][Proc: 0]Uy_local_coeffs: call_update: 0 [ms]
[OGL LOG][Proc: 0]Uy_non_local_coeffs: call_update: 0 [ms]
[OGL LOG][Proc: 0]Uy: update_local_matrix_data: 11.076 [ms]
[OGL LOG][Proc: 0]Uy: update_non_local_matrix_data: 0.081 [ms]
[OGL LOG][Proc: 0]Uy_matrix: call_update: 2.569 [ms]
[OGL LOG][Proc: 0]Uy_rhs: call_update: 2.024 [ms]
[OGL LOG][Preconditioner.H:121] Generate preconditioner BJ MaxBlockSize 1
[OGL LOG][Proc: 0]Uy: init_precond: 0.247 [ms]
[OGL LOG][StoppingCriterion.H:373] Creating stopping criterion with minIter 13 frequency 1
[OGL LOG][Proc: 0]Uy: generate_solver: 0.001 [ms]
[OGL LOG][Proc: 0]Uy: solve: 47.6 [ms]
[OGL LOG][Proc: 0]Uy: copy_x_back: 1.079 [ms]
[OGL LOG][lduLduBase.H:336] 
Statistics:
	Time per iteration: 4327 [mu s]
	Time per residual norm calculation: 232.000000 [mu s]
	Time per iteration and DOF: 0.686048 [ns]
	Retrieve results bandwidth 1.932000 [GByte/s]
[OGL LOG][Proc: 0]Uy: solve_multi_gpu: 53.875 [ms]
BJhipGKOBiCGStab:  Solving for Uy, Initial residual = 0.06084192584463714, Final residual = 0.005963105927798054, No Iterations 11
[OGL LOG][Proc: 0]: global_index_init: 0.102 [ms]
[OGL LOG][Proc: 0]Uz_local_coeffs: call_update: 0 [ms]
[OGL LOG][Proc: 0]Uz_non_local_coeffs: call_update: 0 [ms]
[OGL LOG][Proc: 0]Uz: update_local_matrix_data: 10.217 [ms]
[OGL LOG][Proc: 0]Uz: update_non_local_matrix_data: 0.07000000000000001 [ms]
[OGL LOG][Proc: 0]Uz_matrix: call_update: 2.533 [ms]
[OGL LOG][Proc: 0]Uz_rhs: call_update: 2.337 [ms]
[OGL LOG][Preconditioner.H:121] Generate preconditioner BJ MaxBlockSize 1
[OGL LOG][Proc: 0]Uz: init_precond: 0.255 [ms]
[OGL LOG][StoppingCriterion.H:373] Creating stopping criterion with minIter 13 frequency 1
[OGL LOG][Proc: 0]Uz: generate_solver: 0.001 [ms]
[OGL LOG][Proc: 0]Uz: solve: 49.876 [ms]
[OGL LOG][Proc: 0]Uz: copy_x_back: 1.061 [ms]
[OGL LOG][lduLduBase.H:336] 
Statistics:
	Time per iteration: 4534 [mu s]
	Time per residual norm calculation: 239.000000 [mu s]
	Time per iteration and DOF: 0.718868 [ns]
	Retrieve results bandwidth 1.965000 [GByte/s]
[OGL LOG][Proc: 0]Uz: solve_multi_gpu: 56.427 [ms]
BJhipGKOBiCGStab:  Solving for Uz, Initial residual = 0.06619453033476524, Final residual = 0.006397962046213138, No Iterations 11
[INFO] MomentumPredictor: 255.9 [ms]
[INFO] MatrixAssemblyPI: 79.884 [ms]
[INFO] MatrixAssemblyPII: 36.711 [ms]
[OGL LOG][Proc: 0]: global_index_init: 0.233 [ms]
[OGL LOG][Proc: 0]p_local_coeffs: call_update: 0 [ms]
[OGL LOG][Proc: 0]p_non_local_coeffs: call_update: 0 [ms]
[OGL LOG][Proc: 0]p: update_local_matrix_data: 10.463 [ms]
[OGL LOG][Proc: 0]p: update_non_local_matrix_data: 0.1 [ms]
[OGL LOG][Proc: 0]p_matrix: call_update: 3.635 [ms]
[OGL LOG][Proc: 0]p_rhs: call_update: 1.908 [ms]
[OGL LOG][Preconditioner.H:121] Generate preconditioner BJ MaxBlockSize 1
[OGL LOG][Proc: 0]p: init_precond: 0.253 [ms]
[OGL LOG][StoppingCriterion.H:373] Creating stopping criterion with minIter 298 frequency 7
[OGL LOG][Proc: 0]p: generate_solver: 0.001 [ms]
[OGL LOG][Proc: 0]p: solve: 415.168 [ms]
[OGL LOG][Proc: 0]p: copy_x_back: 1.07 [ms]
[OGL LOG][lduLduBase.H:336] 
Statistics:
	Time per iteration: 1313 [mu s]
	Time per residual norm calculation: 225.000000 [mu s]
	Time per iteration and DOF: 0.208177 [ns]
	Retrieve results bandwidth 1.948000 [GByte/s]
[OGL LOG][Proc: 0]p: solve_multi_gpu: 422.279 [ms]
BJhipGKOCG:  Solving for p, Initial residual = 0.08434400461794871, Final residual = 0.0008177987296858198, No Iterations 316
[INFO] SolveP: 435.09 [ms]
time step continuity errors : sum local = 0.006535560550548025, global = 0.001091856671064721, cumulative = 0.002137019779884184
[INFO] postSolveP: 20.011 [ms]
[OGL LOG][Proc: 0]: global_index_init: 4.151 [ms]
[OGL LOG][Proc: 0]nuTilda_local_coeffs: call_update: 0 [ms]
[OGL LOG][Proc: 0]nuTilda_non_local_coeffs: call_update: 0 [ms]
[OGL LOG][Proc: 0]nuTilda: update_local_matrix_data: 10.3 [ms]
[OGL LOG][Proc: 0]nuTilda: update_non_local_matrix_data: 0.145 [ms]
[OGL LOG][Proc: 0]nuTilda_matrix: call_update: 3.229 [ms]
[OGL LOG][Proc: 0]nuTilda_rhs: call_update: 5.321 [ms]
[OGL LOG][Preconditioner.H:121] Generate preconditioner BJ MaxBlockSize 1
[OGL LOG][Proc: 0]nuTilda: init_precond: 0.275 [ms]
[OGL LOG][StoppingCriterion.H:373] Creating stopping criterion with minIter 3 frequency 1
[OGL LOG][Proc: 0]nuTilda: generate_solver: 0.001 [ms]
[OGL LOG][Proc: 0]nuTilda: solve: 30.16 [ms]
[OGL LOG][Proc: 0]nuTilda: copy_x_back: 1.088 [ms]
[OGL LOG][lduLduBase.H:336] 
Statistics:
	Time per iteration: 15080 [mu s]
	Time per residual norm calculation: 229.000000 [mu s]
	Time per iteration and DOF: 2.390943 [ns]
	Retrieve results bandwidth 1.916000 [GByte/s]
[OGL LOG][Proc: 0]nuTilda: solve_multi_gpu: 40.459 [ms]
BJhipGKOBiCGStab:  Solving for nuTilda, Initial residual = 0.04694763990724374, Final residual = 0.003972491719179293, No Iterations 2
[INFO] TimeStep: 1571.577 [ms]
ExecutionTime = 26.01 s  ClockTime = 26 s

Time = 8

velocityDampingConstraint velocityDamping damped 0 (0%) of cells, with max limit 300
[INFO] MatrixAssemblyU: 452.19 [ms]
[OGL LOG][Proc: 0]: global_index_init: 0.87 [ms]
[OGL LOG][Proc: 0]Ux_local_coeffs: call_update: 0 [ms]
[OGL LOG][Proc: 0]Ux_non_local_coeffs: call_update: 0 [ms]
[OGL LOG][Proc: 0]Ux: update_local_matrix_data: 10.451 [ms]
[OGL LOG][Proc: 0]Ux: update_non_local_matrix_data: 0.094 [ms]
[OGL LOG][Proc: 0]Ux_matrix: call_update: 2.597 [ms]
[OGL LOG][Proc: 0]Ux_rhs: call_update: 2.507 [ms]
[OGL LOG][Preconditioner.H:121] Generate preconditioner BJ MaxBlockSize 1
[OGL LOG][Proc: 0]Ux: init_precond: 0.282 [ms]
[OGL LOG][StoppingCriterion.H:373] Creating stopping criterion with minIter 12 frequency 1
[OGL LOG][Proc: 0]Ux: generate_solver: 0 [ms]
[OGL LOG][Proc: 0]Ux: solve: 46.591 [ms]
[OGL LOG][Proc: 0]Ux: copy_x_back: 1.075 [ms]
[OGL LOG][lduLduBase.H:336] 
Statistics:
	Time per iteration: 4659 [mu s]
	Time per residual norm calculation: 222.000000 [mu s]
	Time per iteration and DOF: 0.738687 [ns]
	Retrieve results bandwidth 1.939000 [GByte/s]
[OGL LOG][Proc: 0]Ux: solve_multi_gpu: 53.405 [ms]
BJhipGKOBiCGStab:  Solving for Ux, Initial residual = 0.01927064223018484, Final residual = 0.00172434993871929, No Iterations 10
[OGL LOG][Proc: 0]: global_index_init: 0.243 [ms]
[OGL LOG][Proc: 0]Uy_local_coeffs: call_update: 0 [ms]
[OGL LOG][Proc: 0]Uy_non_local_coeffs: call_update: 0 [ms]
[OGL LOG][Proc: 0]Uy: update_local_matrix_data: 10.39 [ms]
[OGL LOG][Proc: 0]Uy: update_non_local_matrix_data: 0.09 [ms]
[OGL LOG][Proc: 0]Uy_matrix: call_update: 2.442 [ms]
[OGL LOG][Proc: 0]Uy_rhs: call_update: 2.588 [ms]
[OGL LOG][Preconditioner.H:121] Generate preconditioner BJ MaxBlockSize 1
[OGL LOG][Proc: 0]Uy: init_precond: 0.639 [ms]
[OGL LOG][StoppingCriterion.H:373] Creating stopping criterion with minIter 13 frequency 1
[OGL LOG][Proc: 0]Uy: generate_solver: 0.001 [ms]
[OGL LOG][Proc: 0]Uy: solve: 52.019 [ms]
[OGL LOG][Proc: 0]Uy: copy_x_back: 1.067 [ms]
[OGL LOG][lduLduBase.H:336] 
Statistics:
	Time per iteration: 5201 [mu s]
	Time per residual norm calculation: 224.000000 [mu s]
	Time per iteration and DOF: 0.824622 [ns]
	Retrieve results bandwidth 1.954000 [GByte/s]
[OGL LOG][Proc: 0]Uy: solve_multi_gpu: 59.112 [ms]
BJhipGKOBiCGStab:  Solving for Uy, Initial residual = 0.05147510955651146, Final residual = 0.005027987120920064, No Iterations 10
[OGL LOG][Proc: 0]: global_index_init: 0.221 [ms]
[OGL LOG][Proc: 0]Uz_local_coeffs: call_update: 0 [ms]
[OGL LOG][Proc: 0]Uz_non_local_coeffs: call_update: 0 [ms]
[OGL LOG][Proc: 0]Uz: update_local_matrix_data: 10.35 [ms]
[OGL LOG][Proc: 0]Uz: update_non_local_matrix_data: 0.107 [ms]
[OGL LOG][Proc: 0]Uz_matrix: call_update: 2.382 [ms]
[OGL LOG][Proc: 0]Uz_rhs: call_update: 3.126 [ms]
[OGL LOG][Preconditioner.H:121] Generate preconditioner BJ MaxBlockSize 1
[OGL LOG][Proc: 0]Uz: init_precond: 0.255 [ms]
[OGL LOG][StoppingCriterion.H:373] Creating stopping criterion with minIter 13 frequency 1
[OGL LOG][Proc: 0]Uz: generate_solver: 0.001 [ms]
[OGL LOG][Proc: 0]Uz: solve: 49.785 [ms]
[OGL LOG][Proc: 0]Uz: copy_x_back: 1.069 [ms]
[OGL LOG][lduLduBase.H:336] 
Statistics:
	Time per iteration: 4148 [mu s]
	Time per residual norm calculation: 253.000000 [mu s]
	Time per iteration and DOF: 0.657668 [ns]
	Retrieve results bandwidth 1.950000 [GByte/s]
[OGL LOG][Proc: 0]Uz: solve_multi_gpu: 56.979 [ms]
BJhipGKOBiCGStab:  Solving for Uz, Initial residual = 0.06160860164738086, Final residual = 0.00532148626300304, No Iterations 12
[INFO] MomentumPredictor: 240.947 [ms]
[INFO] MatrixAssemblyPI: 85.181 [ms]
[INFO] MatrixAssemblyPII: 34.677 [ms]
[OGL LOG][Proc: 0]: global_index_init: 0.228 [ms]
[OGL LOG][Proc: 0]p_local_coeffs: call_update: 0 [ms]
[OGL LOG][Proc: 0]p_non_local_coeffs: call_update: 0 [ms]
[OGL LOG][Proc: 0]p: update_local_matrix_data: 11.255 [ms]
[OGL LOG][Proc: 0]p: update_non_local_matrix_data: 0.09 [ms]
[OGL LOG][Proc: 0]p_matrix: call_update: 2.507 [ms]
[OGL LOG][Proc: 0]p_rhs: call_update: 2.172 [ms]
[OGL LOG][Preconditioner.H:121] Generate preconditioner BJ MaxBlockSize 1
[OGL LOG][Proc: 0]p: init_precond: 0.35 [ms]
[OGL LOG][StoppingCriterion.H:373] Creating stopping criterion with minIter 189 frequency 5
[OGL LOG][Proc: 0]p: generate_solver: 0.001 [ms]
[OGL LOG][Proc: 0]p: solve: 436.04 [ms]
[OGL LOG][Proc: 0]p: copy_x_back: 1.064 [ms]
[OGL LOG][lduLduBase.H:336] 
Statistics:
	Time per iteration: 1297 [mu s]
	Time per residual norm calculation: 221.000000 [mu s]
	Time per iteration and DOF: 0.205640 [ns]
	Retrieve results bandwidth 1.959000 [GByte/s]
[OGL LOG][Proc: 0]p: solve_multi_gpu: 442.373 [ms]
BJhipGKOCG:  Solving for p, Initial residual = 0.07344204917523847, Final residual = 0.0007301153634336809, No Iterations 336
[INFO] SolveP: 455.77 [ms]
time step continuity errors : sum local = 0.005842390911153803, global = 0.001381452696807661, cumulative = 0.003518472476691846
[INFO] postSolveP: 19.764 [ms]
[OGL LOG][Proc: 0]: global_index_init: 6.616000000000001 [ms]
[OGL LOG][Proc: 0]nuTilda_local_coeffs: call_update: 0 [ms]
[OGL LOG][Proc: 0]nuTilda_non_local_coeffs: call_update: 0 [ms]
[OGL LOG][Proc: 0]nuTilda: update_local_matrix_data: 11.866 [ms]
[OGL LOG][Proc: 0]nuTilda: update_non_local_matrix_data: 0.06900000000000001 [ms]
[OGL LOG][Proc: 0]nuTilda_matrix: call_update: 5.887 [ms]
[OGL LOG][Proc: 0]nuTilda_rhs: call_update: 0.607 [ms]
[OGL LOG][Preconditioner.H:121] Generate preconditioner BJ MaxBlockSize 1
[OGL LOG][Proc: 0]nuTilda: init_precond: 0.256 [ms]
[OGL LOG][StoppingCriterion.H:373] Creating stopping criterion with minIter 2 frequency 1
[OGL LOG][Proc: 0]nuTilda: generate_solver: 0.001 [ms]
[OGL LOG][Proc: 0]nuTilda: solve: 31.853 [ms]
[OGL LOG][Proc: 0]nuTilda: copy_x_back: 1.097 [ms]
[OGL LOG][lduLduBase.H:336] 
Statistics:
	Time per iteration: 15926 [mu s]
	Time per residual norm calculation: 227.000000 [mu s]
	Time per iteration and DOF: 2.525076 [ns]
	Retrieve results bandwidth 1.900000 [GByte/s]
[OGL LOG][Proc: 0]nuTilda: solve_multi_gpu: 40.061 [ms]
BJhipGKOBiCGStab:  Solving for nuTilda, Initial residual = 0.05965480971295002, Final residual = 0.002749621082106482, No Iterations 2
[INFO] TimeStep: 1585.526 [ms]
ExecutionTime = 27.94 s  ClockTime = 28 s

Time = 9

velocityDampingConstraint velocityDamping damped 0 (0%) of cells, with max limit 300
[INFO] MatrixAssemblyU: 444.266 [ms]
[OGL LOG][Proc: 0]: global_index_init: 0.9470000000000001 [ms]
[OGL LOG][Proc: 0]Ux_local_coeffs: call_update: 0 [ms]
[OGL LOG][Proc: 0]Ux_non_local_coeffs: call_update: 0 [ms]
[OGL LOG][Proc: 0]Ux: update_local_matrix_data: 11.134 [ms]
[OGL LOG][Proc: 0]Ux: update_non_local_matrix_data: 0.083 [ms]
[OGL LOG][Proc: 0]Ux_matrix: call_update: 2.492 [ms]
[OGL LOG][Proc: 0]Ux_rhs: call_update: 2.327 [ms]
[OGL LOG][Preconditioner.H:121] Generate preconditioner BJ MaxBlockSize 1
[OGL LOG][Proc: 0]Ux: init_precond: 0.346 [ms]
[OGL LOG][StoppingCriterion.H:373] Creating stopping criterion with minIter 12 frequency 1
[OGL LOG][Proc: 0]Ux: generate_solver: 0 [ms]
[OGL LOG][Proc: 0]Ux: solve: 52.873 [ms]
[OGL LOG][Proc: 0]Ux: copy_x_back: 1.066 [ms]
[OGL LOG][lduLduBase.H:336] 
Statistics:
	Time per iteration: 4067 [mu s]
	Time per residual norm calculation: 236.000000 [mu s]
	Time per iteration and DOF: 0.644825 [ns]
	Retrieve results bandwidth 1.956000 [GByte/s]
[OGL LOG][Proc: 0]Ux: solve_multi_gpu: 59.462 [ms]
BJhipGKOBiCGStab:  Solving for Ux, Initial residual = 0.01673130049901646, Final residual = 0.0008888930077883687, No Iterations 13
[OGL LOG][Proc: 0]: global_index_init: 0.174 [ms]
[OGL LOG][Proc: 0]Uy_local_coeffs: call_update: 0 [ms]
[OGL LOG][Proc: 0]Uy_non_local_coeffs: call_update: 0 [ms]
[OGL LOG][Proc: 0]Uy: update_local_matrix_data: 11.576 [ms]
[OGL LOG][Proc: 0]Uy: update_non_local_matrix_data: 0.067 [ms]
[OGL LOG][Proc: 0]Uy_matrix: call_update: 3.08 [ms]
[OGL LOG][Proc: 0]Uy_rhs: call_update: 1.33 [ms]
[OGL LOG][Preconditioner.H:121] Generate preconditioner BJ MaxBlockSize 1
[OGL LOG][Proc: 0]Uy: init_precond: 0.297 [ms]
[OGL LOG][StoppingCriterion.H:373] Creating stopping criterion with minIter 12 frequency 1
[OGL LOG][Proc: 0]Uy: generate_solver: 0 [ms]
[OGL LOG][Proc: 0]Uy: solve: 55.785 [ms]
[OGL LOG][Proc: 0]Uy: copy_x_back: 1.127 [ms]
[OGL LOG][lduLduBase.H:336] 
Statistics:
	Time per iteration: 4291 [mu s]
	Time per residual norm calculation: 219.000000 [mu s]
	Time per iteration and DOF: 0.680340 [ns]
	Retrieve results bandwidth 1.850000 [GByte/s]
[OGL LOG][Proc: 0]Uy: solve_multi_gpu: 61.968 [ms]
BJhipGKOBiCGStab:  Solving for Uy, Initial residual = 0.04493137969332146, Final residual = 0.004107880554429212, No Iterations 13
[OGL LOG][Proc: 0]: global_index_init: 0.023 [ms]
[OGL LOG][Proc: 0]Uz_local_coeffs: call_update: 0 [ms]
[OGL LOG][Proc: 0]Uz_non_local_coeffs: call_update: 0 [ms]
[OGL LOG][Proc: 0]Uz: update_local_matrix_data: 13.546 [ms]
[OGL LOG][Proc: 0]Uz: update_non_local_matrix_data: 0.08500000000000001 [ms]
[OGL LOG][Proc: 0]Uz_matrix: call_update: 2.511 [ms]
[OGL LOG][Proc: 0]Uz_rhs: call_update: 0.24 [ms]
[OGL LOG][Preconditioner.H:121] Generate preconditioner BJ MaxBlockSize 1
[OGL LOG][Proc: 0]Uz: init_precond: 0.255 [ms]
[OGL LOG][StoppingCriterion.H:373] Creating stopping criterion with minIter 14 frequency 1
[OGL LOG][Proc: 0]Uz: generate_solver: 0 [ms]
[OGL LOG][Proc: 0]Uz: solve: 48.608 [ms]
[OGL LOG][Proc: 0]Uz: copy_x_back: 1.067 [ms]
[OGL LOG][lduLduBase.H:336] 
Statistics:
	Time per iteration: 4418 [mu s]
	Time per residual norm calculation: 225.000000 [mu s]
	Time per iteration and DOF: 0.700476 [ns]
	Retrieve results bandwidth 1.954000 [GByte/s]
[OGL LOG][Proc: 0]Uz: solve_multi_gpu: 53.036 [ms]
BJhipGKOBiCGStab:  Solving for Uz, Initial residual = 0.04658556815670042, Final residual = 0.004438931506824477, No Iterations 11
[INFO] MomentumPredictor: 250.693 [ms]
[INFO] MatrixAssemblyPI: 79.339 [ms]
[INFO] MatrixAssemblyPII: 36.615 [ms]
[OGL LOG][Proc: 0]: global_index_init: 0.223 [ms]
[OGL LOG][Proc: 0]p_local_coeffs: call_update: 0 [ms]
[OGL LOG][Proc: 0]p_non_local_coeffs: call_update: 0 [ms]
[OGL LOG][Proc: 0]p: update_local_matrix_data: 10.731 [ms]
[OGL LOG][Proc: 0]p: update_non_local_matrix_data: 0.08400000000000001 [ms]
[OGL LOG][Proc: 0]p_matrix: call_update: 2.458 [ms]
[OGL LOG][Proc: 0]p_rhs: call_update: 2.964 [ms]
[OGL LOG][Preconditioner.H:121] Generate preconditioner BJ MaxBlockSize 1
[OGL LOG][Proc: 0]p: init_precond: 0.256 [ms]
[OGL LOG][StoppingCriterion.H:373] Creating stopping criterion with minIter 201 frequency 5
[OGL LOG][Proc: 0]p: generate_solver: 0 [ms]
[OGL LOG][Proc: 0]p: solve: 835.61 [ms]
[OGL LOG][Proc: 0]p: copy_x_back: 1.068 [ms]
[OGL LOG][lduLduBase.H:336] 
Statistics:
	Time per iteration: 1273 [mu s]
	Time per residual norm calculation: 228.000000 [mu s]
	Time per iteration and DOF: 0.201835 [ns]
	Retrieve results bandwidth 1.952000 [GByte/s]
[OGL LOG][Proc: 0]p: solve_multi_gpu: 842.629 [ms]
BJhipGKOCG:  Solving for p, Initial residual = 0.06707745994111977, Final residual = 0.0006671729716439371, No Iterations 656
[INFO] SolveP: 855.623 [ms]
time step continuity errors : sum local = 0.005394937183524519, global = -0.0001632333869132335, cumulative = 0.003355239089778612
[INFO] postSolveP: 19.743 [ms]
[OGL LOG][Proc: 0]: global_index_init: 4.274 [ms]
[OGL LOG][Proc: 0]nuTilda_local_coeffs: call_update: 0 [ms]
[OGL LOG][Proc: 0]nuTilda_non_local_coeffs: call_update: 0 [ms]
[OGL LOG][Proc: 0]nuTilda: update_local_matrix_data: 11.067 [ms]
[OGL LOG][Proc: 0]nuTilda: update_non_local_matrix_data: 0.079 [ms]
[OGL LOG][Proc: 0]nuTilda_matrix: call_update: 2.473 [ms]
[OGL LOG][Proc: 0]nuTilda_rhs: call_update: 3.585 [ms]
[OGL LOG][Preconditioner.H:121] Generate preconditioner BJ MaxBlockSize 1
[OGL LOG][Proc: 0]nuTilda: init_precond: 0.28 [ms]
[OGL LOG][StoppingCriterion.H:373] Creating stopping criterion with minIter 3 frequency 1
[OGL LOG][Proc: 0]nuTilda: generate_solver: 0.001 [ms]
[OGL LOG][Proc: 0]nuTilda: solve: 33.526 [ms]
[OGL LOG][Proc: 0]nuTilda: copy_x_back: 1.076 [ms]
[OGL LOG][lduLduBase.H:336] 
Statistics:
	Time per iteration: 16763 [mu s]
	Time per residual norm calculation: 670.000000 [mu s]
	Time per iteration and DOF: 2.657783 [ns]
	Retrieve results bandwidth 1.938000 [GByte/s]
[OGL LOG][Proc: 0]nuTilda: solve_multi_gpu: 41.307 [ms]
BJhipGKOBiCGStab:  Solving for nuTilda, Initial residual = 0.04157693092477017, Final residual = 0.003566472206565573, No Iterations 2
[INFO] TimeStep: 1980.998 [ms]
ExecutionTime = 30.26 s  ClockTime = 30 s

Time = 10

velocityDampingConstraint velocityDamping damped 0 (0%) of cells, with max limit 300
[INFO] MatrixAssemblyU: 446.134 [ms]
[OGL LOG][Proc: 0]: global_index_init: 0.9480000000000001 [ms]
[OGL LOG][Proc: 0]Ux_local_coeffs: call_update: 0 [ms]
[OGL LOG][Proc: 0]Ux_non_local_coeffs: call_update: 0 [ms]
[OGL LOG][Proc: 0]Ux: update_local_matrix_data: 10.355 [ms]
[OGL LOG][Proc: 0]Ux: update_non_local_matrix_data: 0.08799999999999999 [ms]
[OGL LOG][Proc: 0]Ux_matrix: call_update: 2.602 [ms]
[OGL LOG][Proc: 0]Ux_rhs: call_update: 2.115 [ms]
[OGL LOG][Preconditioner.H:121] Generate preconditioner BJ MaxBlockSize 1
[OGL LOG][Proc: 0]Ux: init_precond: 0.255 [ms]
[OGL LOG][StoppingCriterion.H:373] Creating stopping criterion with minIter 15 frequency 1
[OGL LOG][Proc: 0]Ux: generate_solver: 0 [ms]
[OGL LOG][Proc: 0]Ux: solve: 54.818 [ms]
[OGL LOG][Proc: 0]Ux: copy_x_back: 1.062 [ms]
[OGL LOG][lduLduBase.H:336] 
Statistics:
	Time per iteration: 3915 [mu s]
	Time per residual norm calculation: 232.000000 [mu s]
	Time per iteration and DOF: 0.620725 [ns]
	Retrieve results bandwidth 1.963000 [GByte/s]
[OGL LOG][Proc: 0]Ux: solve_multi_gpu: 61.218 [ms]
BJhipGKOBiCGStab:  Solving for Ux, Initial residual = 0.01528712352080128, Final residual = 0.0009179772886706473, No Iterations 14
[OGL LOG][Proc: 0]: global_index_init: 0.307 [ms]
[OGL LOG][Proc: 0]Uy_local_coeffs: call_update: 0 [ms]
[OGL LOG][Proc: 0]Uy_non_local_coeffs: call_update: 0 [ms]
[OGL LOG][Proc: 0]Uy: update_local_matrix_data: 10.402 [ms]
[OGL LOG][Proc: 0]Uy: update_non_local_matrix_data: 0.257 [ms]
[OGL LOG][Proc: 0]Uy_matrix: call_update: 2.738 [ms]
[OGL LOG][Proc: 0]Uy_rhs: call_update: 2.532 [ms]
[OGL LOG][Preconditioner.H:121] Generate preconditioner BJ MaxBlockSize 1
[OGL LOG][Proc: 0]Uy: init_precond: 0.254 [ms]
[OGL LOG][StoppingCriterion.H:373] Creating stopping criterion with minIter 16 frequency 1
[OGL LOG][Proc: 0]Uy: generate_solver: 0.001 [ms]
[OGL LOG][Proc: 0]Uy: solve: 70.56 [ms]
[OGL LOG][Proc: 0]Uy: copy_x_back: 1.112 [ms]
[OGL LOG][lduLduBase.H:336] 
Statistics:
	Time per iteration: 7056 [mu s]
	Time per residual norm calculation: 220.000000 [mu s]
	Time per iteration and DOF: 1.118733 [ns]
	Retrieve results bandwidth 1.875000 [GByte/s]
[OGL LOG][Proc: 0]Uy: solve_multi_gpu: 77.551 [ms]
BJhipGKOBiCGStab:  Solving for Uy, Initial residual = 0.04162882142030942, Final residual = 0.004156357976550559, No Iterations 10
[OGL LOG][Proc: 0]: global_index_init: 0.182 [ms]
[OGL LOG][Proc: 0]Uz_local_coeffs: call_update: 0 [ms]
[OGL LOG][Proc: 0]Uz_non_local_coeffs: call_update: 0 [ms]
[OGL LOG][Proc: 0]Uz: update_local_matrix_data: 9.672000000000001 [ms]
[OGL LOG][Proc: 0]Uz: update_non_local_matrix_data: 0.108 [ms]
[OGL LOG][Proc: 0]Uz_matrix: call_update: 3.067 [ms]
[OGL LOG][Proc: 0]Uz_rhs: call_update: 5.739 [ms]
[OGL LOG][Preconditioner.H:121] Generate preconditioner BJ MaxBlockSize 1
[OGL LOG][Proc: 0]Uz: init_precond: 0.41 [ms]
[OGL LOG][StoppingCriterion.H:373] Creating stopping criterion with minIter 13 frequency 1
[OGL LOG][Proc: 0]Uz: generate_solver: 0 [ms]
[OGL LOG][Proc: 0]Uz: solve: 53.162 [ms]
[OGL LOG][Proc: 0]Uz: copy_x_back: 1.062 [ms]
[OGL LOG][lduLduBase.H:336] 
Statistics:
	Time per iteration: 4430 [mu s]
	Time per residual norm calculation: 234.000000 [mu s]
	Time per iteration and DOF: 0.702379 [ns]
	Retrieve results bandwidth 1.963000 [GByte/s]
[OGL LOG][Proc: 0]Uz: solve_multi_gpu: 63.802 [ms]
BJhipGKOBiCGStab:  Solving for Uz, Initial residual = 0.04138394851911113, Final residual = 0.003058118186603343, No Iterations 12
[INFO] MomentumPredictor: 273.266 [ms]
[INFO] MatrixAssemblyPI: 78.691 [ms]
[INFO] MatrixAssemblyPII: 36.989 [ms]
[OGL LOG][Proc: 0]: global_index_init: 0.192 [ms]
[OGL LOG][Proc: 0]p_local_coeffs: call_update: 0 [ms]
[OGL LOG][Proc: 0]p_non_local_coeffs: call_update: 0 [ms]
[OGL LOG][Proc: 0]p: update_local_matrix_data: 10.767 [ms]
[OGL LOG][Proc: 0]p: update_non_local_matrix_data: 0.077 [ms]
[OGL LOG][Proc: 0]p_matrix: call_update: 2.452 [ms]
[OGL LOG][Proc: 0]p_rhs: call_update: 4.243 [ms]
[OGL LOG][Preconditioner.H:121] Generate preconditioner BJ MaxBlockSize 1
[OGL LOG][Proc: 0]p: init_precond: 0.304 [ms]
[OGL LOG][StoppingCriterion.H:373] Creating stopping criterion with minIter 393 frequency 7
[OGL LOG][Proc: 0]p: generate_solver: 0.001 [ms]
[OGL LOG][Proc: 0]p: solve: 498.536 [ms]
[OGL LOG][Proc: 0]p: copy_x_back: 1.036 [ms]
[OGL LOG][lduLduBase.H:336] 
Statistics:
	Time per iteration: 1246 [mu s]
	Time per residual norm calculation: 251.000000 [mu s]
	Time per iteration and DOF: 0.197554 [ns]
	Retrieve results bandwidth 2.012000 [GByte/s]
[OGL LOG][Proc: 0]p: solve_multi_gpu: 506.815 [ms]
BJhipGKOCG:  Solving for p, Initial residual = 0.05903797012953431, Final residual = 0.0003736391478549432, No Iterations 400
[INFO] SolveP: 519.872 [ms]
time step continuity errors : sum local = 0.0031666229129597, global = -0.0004433060204136115, cumulative = 0.002911933069365001
[INFO] postSolveP: 19.352 [ms]
[OGL LOG][Proc: 0]: global_index_init: 4.971 [ms]
[OGL LOG][Proc: 0]nuTilda_local_coeffs: call_update: 0 [ms]
[OGL LOG][Proc: 0]nuTilda_non_local_coeffs: call_update: 0 [ms]
[OGL LOG][Proc: 0]nuTilda: update_local_matrix_data: 11.151 [ms]
[OGL LOG][Proc: 0]nuTilda: update_non_local_matrix_data: 0.096 [ms]
[OGL LOG][Proc: 0]nuTilda_matrix: call_update: 2.358 [ms]
[OGL LOG][Proc: 0]nuTilda_rhs: call_update: 4.144 [ms]
[OGL LOG][Preconditioner.H:121] Generate preconditioner BJ MaxBlockSize 1
[OGL LOG][Proc: 0]nuTilda: init_precond: 0.27 [ms]
[OGL LOG][StoppingCriterion.H:373] Creating stopping criterion with minIter 2 frequency 1
[OGL LOG][Proc: 0]nuTilda: generate_solver: 0.001 [ms]
[OGL LOG][Proc: 0]nuTilda: solve: 32.548 [ms]
[OGL LOG][Proc: 0]nuTilda: copy_x_back: 1.079 [ms]
[OGL LOG][lduLduBase.H:336] 
Statistics:
	Time per iteration: 16274 [mu s]
	Time per residual norm calculation: 229.000000 [mu s]
	Time per iteration and DOF: 2.580252 [ns]
	Retrieve results bandwidth 1.932000 [GByte/s]
[OGL LOG][Proc: 0]nuTilda: solve_multi_gpu: 40.773 [ms]
BJhipGKOBiCGStab:  Solving for nuTilda, Initial residual = 0.06504272339410991, Final residual = 0.002926055585381061, No Iterations 2
[INFO] TimeStep: 1670.937 [ms]
ExecutionTime = 32.27 s  ClockTime = 32 s

Time = 11

velocityDampingConstraint velocityDamping damped 0 (0%) of cells, with max limit 300
[INFO] MatrixAssemblyU: 444.225 [ms]
[OGL LOG][Proc: 0]: global_index_init: 0.96 [ms]
[...]
[OGL LOG][Proc: 0]nuTilda_matrix: call_update: 2.693 [ms]
[OGL LOG][Proc: 0]nuTilda_rhs: call_update: 0.6910000000000001 [ms]
[OGL LOG][Preconditioner.H:121] Generate preconditioner BJ MaxBlockSize 1
[OGL LOG][Proc: 0]nuTilda: init_precond: 0.257 [ms]
[OGL LOG][StoppingCriterion.H:373] Creating stopping criterion with minIter 2 frequency 1
[OGL LOG][Proc: 0]nuTilda: generate_solver: 0 [ms]
[OGL LOG][Proc: 0]nuTilda: solve: 29.155 [ms]
[OGL LOG][Proc: 0]nuTilda: copy_x_back: 1.104 [ms]
[OGL LOG][lduLduBase.H:336] 
Statistics:
	Time per iteration: 14577 [mu s]
	Time per residual norm calculation: 222.000000 [mu s]
	Time per iteration and DOF: 2.311192 [ns]
	Retrieve results bandwidth 1.888000 [GByte/s]
[OGL LOG][Proc: 0]nuTilda: solve_multi_gpu: 34.267 [ms]
BJhipGKOBiCGStab:  Solving for nuTilda, Initial residual = 0.01166081412229134, Final residual = 0.000901678723984654, No Iterations 2
bounding nuTilda, min: -2.078360716763791e-05 max: 0.006932290045443081 average: 0.0003492584964223111
[INFO] TimeStep: 1661.214 [ms]
ExecutionTime = 104.91 s  ClockTime = 106 s

Time = 48

velocityDampingConstraint velocityDamping damped 0 (0%) of cells, with max limit 300
[INFO] MatrixAssemblyU: 452.801 [ms]
[OGL LOG][Proc: 0]: global_index_init: 1.018 [ms]
[OGL LOG][Proc: 0]Ux_local_coeffs: call_update: 0 [ms]
[OGL LOG][Proc: 0]Ux_non_local_coeffs: call_update: 0 [ms]
[OGL LOG][Proc: 0]Ux: update_local_matrix_data: 10.472 [ms]
[OGL LOG][Proc: 0]Ux: update_non_local_matrix_data: 0.078 [ms]
[OGL LOG][Proc: 0]Ux_matrix: call_update: 3.996 [ms]
[OGL LOG][Proc: 0]Ux_rhs: call_update: 1.414 [ms]
[OGL LOG][Preconditioner.H:121] Generate preconditioner BJ MaxBlockSize 1
[OGL LOG][Proc: 0]Ux: init_precond: 0.347 [ms]
[OGL LOG][StoppingCriterion.H:373] Creating stopping criterion with minIter 13 frequency 1
[OGL LOG][Proc: 0]Ux: generate_solver: 0 [ms]
[OGL LOG][Proc: 0]Ux: solve: 46.086 [ms]
[OGL LOG][Proc: 0]Ux: copy_x_back: 1.064 [ms]
[OGL LOG][lduLduBase.H:336] 
Statistics:
	Time per iteration: 4608 [mu s]
	Time per residual norm calculation: 233.000000 [mu s]
	Time per iteration and DOF: 0.730601 [ns]
	Retrieve results bandwidth 1.959000 [GByte/s]
[OGL LOG][Proc: 0]Ux: solve_multi_gpu: 53.26 [ms]
BJhipGKOBiCGStab:  Solving for Ux, Initial residual = 0.01173693141906803, Final residual = 0.001091396837972546, No Iterations 10
[OGL LOG][Proc: 0]: global_index_init: 0.769 [ms]
[OGL LOG][Proc: 0]Uy_local_coeffs: call_update: 0 [ms]
[OGL LOG][Proc: 0]Uy_non_local_coeffs: call_update: 0 [ms]
[OGL LOG][Proc: 0]Uy: update_local_matrix_data: 10.382 [ms]
[OGL LOG][Proc: 0]Uy: update_non_local_matrix_data: 0.08400000000000001 [ms]
[OGL LOG][Proc: 0]Uy_matrix: call_update: 3.843 [ms]
[OGL LOG][Proc: 0]Uy_rhs: call_update: 1.954 [ms]
[OGL LOG][Preconditioner.H:121] Generate preconditioner BJ MaxBlockSize 1
[OGL LOG][Proc: 0]Uy: init_precond: 0.256 [ms]
[OGL LOG][StoppingCriterion.H:373] Creating stopping criterion with minIter 12 frequency 1
[OGL LOG][Proc: 0]Uy: generate_solver: 0 [ms]
[OGL LOG][Proc: 0]Uy: solve: 71.492 [ms]
[OGL LOG][Proc: 0]Uy: copy_x_back: 1.073 [ms]
[OGL LOG][lduLduBase.H:336] 
Statistics:
	Time per iteration: 4468 [mu s]
	Time per residual norm calculation: 231.000000 [mu s]
	Time per iteration and DOF: 0.708404 [ns]
	Retrieve results bandwidth 1.943000 [GByte/s]
[OGL LOG][Proc: 0]Uy: solve_multi_gpu: 78.977 [ms]
BJhipGKOBiCGStab:  Solving for Uy, Initial residual = 0.06539481460454327, Final residual = 0.002347513491729913, No Iterations 16
[OGL LOG][Proc: 0]: global_index_init: 0.355 [ms]
[OGL LOG][Proc: 0]Uz_local_coeffs: call_update: 0 [ms]
[OGL LOG][Proc: 0]Uz_non_local_coeffs: call_update: 0 [ms]
[OGL LOG][Proc: 0]Uz: update_local_matrix_data: 10.603 [ms]
[OGL LOG][Proc: 0]Uz: update_non_local_matrix_data: 0.079 [ms]
[OGL LOG][Proc: 0]Uz_matrix: call_update: 2.374 [ms]
[OGL LOG][Proc: 0]Uz_rhs: call_update: 3.06 [ms]
[OGL LOG][Preconditioner.H:121] Generate preconditioner BJ MaxBlockSize 1
[OGL LOG][Proc: 0]Uz: init_precond: 0.258 [ms]
[OGL LOG][StoppingCriterion.H:373] Creating stopping criterion with minIter 15 frequency 1
[OGL LOG][Proc: 0]Uz: generate_solver: 0 [ms]
[OGL LOG][Proc: 0]Uz: solve: 69.131 [ms]
[OGL LOG][Proc: 0]Uz: copy_x_back: 1.077 [ms]
[OGL LOG][lduLduBase.H:336] 
Statistics:
	Time per iteration: 5760 [mu s]
	Time per residual norm calculation: 237.000000 [mu s]
	Time per iteration and DOF: 0.913251 [ns]
	Retrieve results bandwidth 1.936000 [GByte/s]
[OGL LOG][Proc: 0]Uz: solve_multi_gpu: 76.261 [ms]
BJhipGKOBiCGStab:  Solving for Uz, Initial residual = 0.0696294906404511, Final residual = 0.006299956701082451, No Iterations 12
[INFO] MomentumPredictor: 280.917 [ms]
[INFO] MatrixAssemblyPI: 79.184 [ms]
[INFO] MatrixAssemblyPII: 36.65 [ms]
[OGL LOG][Proc: 0]: global_index_init: 0.253 [ms]
[OGL LOG][Proc: 0]p_local_coeffs: call_update: 0 [ms]
[OGL LOG][Proc: 0]p_non_local_coeffs: call_update: 0 [ms]
[OGL LOG][Proc: 0]p: update_local_matrix_data: 10.737 [ms]
[OGL LOG][Proc: 0]p: update_non_local_matrix_data: 0.08 [ms]
[OGL LOG][Proc: 0]p_matrix: call_update: 3.257 [ms]
[OGL LOG][Proc: 0]p_rhs: call_update: 2.436 [ms]
[OGL LOG][Preconditioner.H:121] Generate preconditioner BJ MaxBlockSize 1
[OGL LOG][Proc: 0]p: init_precond: 0.357 [ms]
[OGL LOG][StoppingCriterion.H:373] Creating stopping criterion with minIter 227 frequency 5
[OGL LOG][Proc: 0]p: generate_solver: 0.001 [ms]
[OGL LOG][Proc: 0]p: solve: 309.418 [ms]
[OGL LOG][Proc: 0]p: copy_x_back: 1.062 [ms]
[OGL LOG][lduLduBase.H:336] 
Statistics:
	Time per iteration: 1257 [mu s]
	Time per residual norm calculation: 228.000000 [mu s]
	Time per iteration and DOF: 0.199298 [ns]
	Retrieve results bandwidth 1.963000 [GByte/s]
[OGL LOG][Proc: 0]p: solve_multi_gpu: 316.764 [ms]
BJhipGKOCG:  Solving for p, Initial residual = 0.05784474018525623, Final residual = 0.0005737508326762711, No Iterations 246
[INFO] SolveP: 329.839 [ms]
time step continuity errors : sum local = 0.005829388508063596, global = 0.0008582545701585171, cumulative = 0.004782805938955453
[INFO] postSolveP: 19.682 [ms]
[OGL LOG][Proc: 0]: global_index_init: 5.507 [ms]
[OGL LOG][Proc: 0]nuTilda_local_coeffs: call_update: 0 [ms]
[OGL LOG][Proc: 0]nuTilda_non_local_coeffs: call_update: 0 [ms]
[OGL LOG][Proc: 0]nuTilda: update_local_matrix_data: 10.354 [ms]
[OGL LOG][Proc: 0]nuTilda: update_non_local_matrix_data: 0.108 [ms]
[OGL LOG][Proc: 0]nuTilda_matrix: call_update: 6.821 [ms]
[OGL LOG][Proc: 0]nuTilda_rhs: call_update: 0.485 [ms]
[OGL LOG][Preconditioner.H:121] Generate preconditioner BJ MaxBlockSize 1
[OGL LOG][Proc: 0]nuTilda: init_precond: 0.253 [ms]
[OGL LOG][StoppingCriterion.H:373] Creating stopping criterion with minIter 3 frequency 1
[OGL LOG][Proc: 0]nuTilda: generate_solver: 0.001 [ms]
[OGL LOG][Proc: 0]nuTilda: solve: 31.138 [ms]
[OGL LOG][Proc: 0]nuTilda: copy_x_back: 1.082 [ms]
[OGL LOG][lduLduBase.H:336] 
Statistics:
	Time per iteration: 15569 [mu s]
	Time per residual norm calculation: 223.000000 [mu s]
	Time per iteration and DOF: 2.468474 [ns]
	Retrieve results bandwidth 1.927000 [GByte/s]
[OGL LOG][Proc: 0]nuTilda: solve_multi_gpu: 40.152 [ms]
BJhipGKOBiCGStab:  Solving for nuTilda, Initial residual = 0.0153200095011076, Final residual = 0.0009100068212120853, No Iterations 2
[INFO] TimeStep: 1493.717 [ms]
ExecutionTime = 106.75 s  ClockTime = 107 s

Time = 49

velocityDampingConstraint velocityDamping damped 0 (0%) of cells, with max limit 300
[INFO] MatrixAssemblyU: 450.441 [ms]
[OGL LOG][Proc: 0]: global_index_init: 0.866 [ms]
[OGL LOG][Proc: 0]Ux_local_coeffs: call_update: 0 [ms]
[OGL LOG][Proc: 0]Ux_non_local_coeffs: call_update: 0 [ms]
[OGL LOG][Proc: 0]Ux: update_local_matrix_data: 10.556 [ms]
[OGL LOG][Proc: 0]Ux: update_non_local_matrix_data: 0.075 [ms]
[OGL LOG][Proc: 0]Ux_matrix: call_update: 2.568 [ms]
[OGL LOG][Proc: 0]Ux_rhs: call_update: 3.447 [ms]
[OGL LOG][Preconditioner.H:121] Generate preconditioner BJ MaxBlockSize 1
[OGL LOG][Proc: 0]Ux: init_precond: 0.253 [ms]
[OGL LOG][StoppingCriterion.H:373] Creating stopping criterion with minIter 12 frequency 1
[OGL LOG][Proc: 0]Ux: generate_solver: 0 [ms]
[OGL LOG][Proc: 0]Ux: solve: 55.694 [ms]
[OGL LOG][Proc: 0]Ux: copy_x_back: 1.069 [ms]
[OGL LOG][lduLduBase.H:336] 
Statistics:
	Time per iteration: 4641 [mu s]
	Time per residual norm calculation: 229.000000 [mu s]
	Time per iteration and DOF: 0.735833 [ns]
	Retrieve results bandwidth 1.950000 [GByte/s]
[OGL LOG][Proc: 0]Ux: solve_multi_gpu: 63.381 [ms]
BJhipGKOBiCGStab:  Solving for Ux, Initial residual = 0.01153516373856217, Final residual = 0.001049484532398854, No Iterations 12
[OGL LOG][Proc: 0]: global_index_init: 0.303 [ms]
[OGL LOG][Proc: 0]Uy_local_coeffs: call_update: 0 [ms]
[OGL LOG][Proc: 0]Uy_non_local_coeffs: call_update: 0 [ms]
[OGL LOG][Proc: 0]Uy: update_local_matrix_data: 10.739 [ms]
[OGL LOG][Proc: 0]Uy: update_non_local_matrix_data: 0.082 [ms]
[OGL LOG][Proc: 0]Uy_matrix: call_update: 4.598 [ms]
[OGL LOG][Proc: 0]Uy_rhs: call_update: 11.824 [ms]
[OGL LOG][Preconditioner.H:121] Generate preconditioner BJ MaxBlockSize 1
[OGL LOG][Proc: 0]Uy: init_precond: 0.345 [ms]
[OGL LOG][StoppingCriterion.H:373] Creating stopping criterion with minIter 19 frequency 1
[OGL LOG][Proc: 0]Uy: generate_solver: 0.001 [ms]
[OGL LOG][Proc: 0]Uy: solve: 56.517 [ms]
[OGL LOG][Proc: 0]Uy: copy_x_back: 1.091 [ms]
[OGL LOG][lduLduBase.H:336] 
Statistics:
	Time per iteration: 3767 [mu s]
	Time per residual norm calculation: 233.000000 [mu s]
	Time per iteration and DOF: 0.597260 [ns]
	Retrieve results bandwidth 1.911000 [GByte/s]
[OGL LOG][Proc: 0]Uy: solve_multi_gpu: 74.738 [ms]
BJhipGKOBiCGStab:  Solving for Uy, Initial residual = 0.06485656169107745, Final residual = 0.003350726099182777, No Iterations 15
[OGL LOG][Proc: 0]: global_index_init: 0.197 [ms]
[OGL LOG][Proc: 0]Uz_local_coeffs: call_update: 0 [ms]
[OGL LOG][Proc: 0]Uz_non_local_coeffs: call_update: 0 [ms]
[OGL LOG][Proc: 0]Uz: update_local_matrix_data: 10.355 [ms]
[OGL LOG][Proc: 0]Uz: update_non_local_matrix_data: 0.091 [ms]
[OGL LOG][Proc: 0]Uz_matrix: call_update: 2.367 [ms]
[OGL LOG][Proc: 0]Uz_rhs: call_update: 4.601 [ms]
[OGL LOG][Preconditioner.H:121] Generate preconditioner BJ MaxBlockSize 1
[OGL LOG][Proc: 0]Uz: init_precond: 0.439 [ms]
[OGL LOG][StoppingCriterion.H:373] Creating stopping criterion with minIter 14 frequency 1
[OGL LOG][Proc: 0]Uz: generate_solver: 0.001 [ms]
[OGL LOG][Proc: 0]Uz: solve: 53.289 [ms]
[OGL LOG][Proc: 0]Uz: copy_x_back: 1.064 [ms]
[OGL LOG][lduLduBase.H:336] 
Statistics:
	Time per iteration: 4099 [mu s]
	Time per residual norm calculation: 231.000000 [mu s]
	Time per iteration and DOF: 0.649899 [ns]
	Retrieve results bandwidth 1.959000 [GByte/s]
[OGL LOG][Proc: 0]Uz: solve_multi_gpu: 62.112 [ms]
BJhipGKOBiCGStab:  Solving for Uz, Initial residual = 0.07110976767187285, Final residual = 0.006356064061305268, No Iterations 13
[INFO] MomentumPredictor: 271.566 [ms]
[INFO] MatrixAssemblyPI: 79.67100000000001 [ms]
[INFO] MatrixAssemblyPII: 36.376 [ms]
[OGL LOG][Proc: 0]: global_index_init: 0.06 [ms]
[OGL LOG][Proc: 0]p_local_coeffs: call_update: 0 [ms]
[OGL LOG][Proc: 0]p_non_local_coeffs: call_update: 0 [ms]
[OGL LOG][Proc: 0]p: update_local_matrix_data: 10.942 [ms]
[OGL LOG][Proc: 0]p: update_non_local_matrix_data: 0.081 [ms]
[OGL LOG][Proc: 0]p_matrix: call_update: 2.343 [ms]
[OGL LOG][Proc: 0]p_rhs: call_update: 3.705 [ms]
[OGL LOG][Preconditioner.H:121] Generate preconditioner BJ MaxBlockSize 1
[OGL LOG][Proc: 0]p: init_precond: 0.295 [ms]
[OGL LOG][StoppingCriterion.H:373] Creating stopping criterion with minIter 147 frequency 4
[OGL LOG][Proc: 0]p: generate_solver: 0.001 [ms]
[OGL LOG][Proc: 0]p: solve: 330.401 [ms]
[OGL LOG][Proc: 0]p: copy_x_back: 1.068 [ms]
[OGL LOG][lduLduBase.H:336] 
Statistics:
	Time per iteration: 1348 [mu s]
	Time per residual norm calculation: 232.000000 [mu s]
	Time per iteration and DOF: 0.213726 [ns]
	Retrieve results bandwidth 1.952000 [GByte/s]
[OGL LOG][Proc: 0]p: solve_multi_gpu: 338.06 [ms]
BJhipGKOCG:  Solving for p, Initial residual = 0.06328318071225904, Final residual = 0.0006289412983444182, No Iterations 245
[INFO] SolveP: 351.238 [ms]
time step continuity errors : sum local = 0.006353838594392468, global = 0.001025820005933391, cumulative = 0.005808625944888844
[INFO] postSolveP: 19.651 [ms]
[OGL LOG][Proc: 0]: global_index_init: 6.955 [ms]
[OGL LOG][Proc: 0]nuTilda_local_coeffs: call_update: 0 [ms]
[OGL LOG][Proc: 0]nuTilda_non_local_coeffs: call_update: 0 [ms]
[OGL LOG][Proc: 0]nuTilda: update_local_matrix_data: 11.224 [ms]
[OGL LOG][Proc: 0]nuTilda: update_non_local_matrix_data: 0.101 [ms]
[OGL LOG][Proc: 0]nuTilda_matrix: call_update: 2.563 [ms]
[OGL LOG][Proc: 0]nuTilda_rhs: call_update: 4.487 [ms]
[OGL LOG][Preconditioner.H:121] Generate preconditioner BJ MaxBlockSize 1
[OGL LOG][Proc: 0]nuTilda: init_precond: 0.262 [ms]
[OGL LOG][StoppingCriterion.H:373] Creating stopping criterion with minIter 3 frequency 1
[OGL LOG][Proc: 0]nuTilda: generate_solver: 0.001 [ms]
[OGL LOG][Proc: 0]nuTilda: solve: 31.168 [ms]
[OGL LOG][Proc: 0]nuTilda: copy_x_back: 1.073 [ms]
[OGL LOG][lduLduBase.H:336] 
Statistics:
	Time per iteration: 15584 [mu s]
	Time per residual norm calculation: 221.000000 [mu s]
	Time per iteration and DOF: 2.470852 [ns]
	Retrieve results bandwidth 1.943000 [GByte/s]
[OGL LOG][Proc: 0]nuTilda: solve_multi_gpu: 39.919 [ms]
BJhipGKOBiCGStab:  Solving for nuTilda, Initial residual = 0.01114253218232283, Final residual = 0.0007230142403610087, No Iterations 2
[INFO] TimeStep: 1509.228 [ms]
ExecutionTime = 108.6 s  ClockTime = 109 s

Time = 50

velocityDampingConstraint velocityDamping damped 0 (0%) of cells, with max limit 300
[INFO] MatrixAssemblyU: 455.1 [ms]
[OGL LOG][Proc: 0]: global_index_init: 1.129 [ms]
[OGL LOG][Proc: 0]Ux_local_coeffs: call_update: 0 [ms]
[OGL LOG][Proc: 0]Ux_non_local_coeffs: call_update: 0 [ms]
[OGL LOG][Proc: 0]Ux: update_local_matrix_data: 10.529 [ms]
[OGL LOG][Proc: 0]Ux: update_non_local_matrix_data: 0.094 [ms]
[OGL LOG][Proc: 0]Ux_matrix: call_update: 2.35 [ms]
[OGL LOG][Proc: 0]Ux_rhs: call_update: 3.564 [ms]
[OGL LOG][Preconditioner.H:121] Generate preconditioner BJ MaxBlockSize 1
[OGL LOG][Proc: 0]Ux: init_precond: 0.261 [ms]
[OGL LOG][StoppingCriterion.H:373] Creating stopping criterion with minIter 14 frequency 1
[OGL LOG][Proc: 0]Ux: generate_solver: 0.001 [ms]
[OGL LOG][Proc: 0]Ux: solve: 43.809 [ms]
[OGL LOG][Proc: 0]Ux: copy_x_back: 1.073 [ms]
[OGL LOG][lduLduBase.H:336] 
Statistics:
	Time per iteration: 4867 [mu s]
	Time per residual norm calculation: 226.000000 [mu s]
	Time per iteration and DOF: 0.771666 [ns]
	Retrieve results bandwidth 1.943000 [GByte/s]
[OGL LOG][Proc: 0]Ux: solve_multi_gpu: 51.906 [ms]
BJhipGKOBiCGStab:  Solving for Ux, Initial residual = 0.01142445942422184, Final residual = 0.001124901039697493, No Iterations 9
[OGL LOG][Proc: 0]: global_index_init: 0.066 [ms]
[OGL LOG][Proc: 0]Uy_local_coeffs: call_update: 0 [ms]
[OGL LOG][Proc: 0]Uy_non_local_coeffs: call_update: 0 [ms]
[OGL LOG][Proc: 0]Uy: update_local_matrix_data: 10.529 [ms]
[OGL LOG][Proc: 0]Uy: update_non_local_matrix_data: 0.081 [ms]
[OGL LOG][Proc: 0]Uy_matrix: call_update: 2.569 [ms]
[OGL LOG][Proc: 0]Uy_rhs: call_update: 3.947 [ms]
[OGL LOG][Preconditioner.H:121] Generate preconditioner BJ MaxBlockSize 1
[OGL LOG][Proc: 0]Uy: init_precond: 0.358 [ms]
[OGL LOG][StoppingCriterion.H:373] Creating stopping criterion with minIter 18 frequency 1
[OGL LOG][Proc: 0]Uy: generate_solver: 0.001 [ms]
[OGL LOG][Proc: 0]Uy: solve: 59.647 [ms]
[OGL LOG][Proc: 0]Uy: copy_x_back: 1.087 [ms]
[OGL LOG][lduLduBase.H:336] 
Statistics:
	Time per iteration: 4970 [mu s]
	Time per residual norm calculation: 216.000000 [mu s]
	Time per iteration and DOF: 0.787996 [ns]
	Retrieve results bandwidth 1.918000 [GByte/s]
[OGL LOG][Proc: 0]Uy: solve_multi_gpu: 68.005 [ms]
BJhipGKOBiCGStab:  Solving for Uy, Initial residual = 0.06433984332185601, Final residual = 0.00558800533483409, No Iterations 12
[OGL LOG][Proc: 0]: global_index_init: 0.039 [ms]
[OGL LOG][Proc: 0]Uz_local_coeffs: call_update: 0 [ms]
[OGL LOG][Proc: 0]Uz_non_local_coeffs: call_update: 0 [ms]
[OGL LOG][Proc: 0]Uz: update_local_matrix_data: 10.46 [ms]
[OGL LOG][Proc: 0]Uz: update_non_local_matrix_data: 0.078 [ms]
[OGL LOG][Proc: 0]Uz_matrix: call_update: 2.66 [ms]
[OGL LOG][Proc: 0]Uz_rhs: call_update: 3.733 [ms]
[OGL LOG][Preconditioner.H:121] Generate preconditioner BJ MaxBlockSize 1
[OGL LOG][Proc: 0]Uz: init_precond: 0.255 [ms]
[OGL LOG][StoppingCriterion.H:373] Creating stopping criterion with minIter 15 frequency 1
[OGL LOG][Proc: 0]Uz: generate_solver: 0 [ms]
[OGL LOG][Proc: 0]Uz: solve: 61.564 [ms]
[OGL LOG][Proc: 0]Uz: copy_x_back: 1.06 [ms]
[OGL LOG][lduLduBase.H:336] 
Statistics:
	Time per iteration: 4735 [mu s]
	Time per residual norm calculation: 226.000000 [mu s]
	Time per iteration and DOF: 0.750737 [ns]
	Retrieve results bandwidth 1.967000 [GByte/s]
[OGL LOG][Proc: 0]Uz: solve_multi_gpu: 69.62 [ms]
BJhipGKOBiCGStab:  Solving for Uz, Initial residual = 0.0973666213900395, Final residual = 0.008818987060822668, No Iterations 13
[INFO] MomentumPredictor: 260.935 [ms]
[INFO] MatrixAssemblyPI: 78.89700000000001 [ms]
[INFO] MatrixAssemblyPII: 36.966 [ms]
[OGL LOG][Proc: 0]: global_index_init: 0.242 [ms]
[OGL LOG][Proc: 0]p_local_coeffs: call_update: 0 [ms]
[OGL LOG][Proc: 0]p_non_local_coeffs: call_update: 0 [ms]
[OGL LOG][Proc: 0]p: update_local_matrix_data: 10.807 [ms]
[OGL LOG][Proc: 0]p: update_non_local_matrix_data: 0.08 [ms]
[OGL LOG][Proc: 0]p_matrix: call_update: 2.281 [ms]
[OGL LOG][Proc: 0]p_rhs: call_update: 5.536 [ms]
[OGL LOG][Preconditioner.H:121] Generate preconditioner BJ MaxBlockSize 1
[OGL LOG][Proc: 0]p: init_precond: 0.281 [ms]
[OGL LOG][StoppingCriterion.H:373] Creating stopping criterion with minIter 147 frequency 4
[OGL LOG][Proc: 0]p: generate_solver: 0.001 [ms]
[OGL LOG][Proc: 0]p: solve: 403.621 [ms]
[OGL LOG][Proc: 0]p: copy_x_back: 1.06 [ms]
[OGL LOG][lduLduBase.H:336] 
Statistics:
	Time per iteration: 1306 [mu s]
	Time per residual norm calculation: 225.000000 [mu s]
	Time per iteration and DOF: 0.207067 [ns]
	Retrieve results bandwidth 1.967000 [GByte/s]
[OGL LOG][Proc: 0]p: solve_multi_gpu: 413.022 [ms]
BJhipGKOCG:  Solving for p, Initial residual = 0.06077034301615973, Final residual = 0.00060692471020764, No Iterations 309
[INFO] SolveP: 426.174 [ms]
time step continuity errors : sum local = 0.006121707780741685, global = 0.0009659890440387103, cumulative = 0.006774614988927554
[INFO] postSolveP: 19.876 [ms]
[OGL LOG][Proc: 0]: global_index_init: 6.171 [ms]
[OGL LOG][Proc: 0]nuTilda_local_coeffs: call_update: 0 [ms]
[OGL LOG][Proc: 0]nuTilda_non_local_coeffs: call_update: 0 [ms]
[OGL LOG][Proc: 0]nuTilda: update_local_matrix_data: 11.15 [ms]
[OGL LOG][Proc: 0]nuTilda: update_non_local_matrix_data: 0.074 [ms]
[OGL LOG][Proc: 0]nuTilda_matrix: call_update: 2.532 [ms]
[OGL LOG][Proc: 0]nuTilda_rhs: call_update: 3.044 [ms]
[OGL LOG][Preconditioner.H:121] Generate preconditioner BJ MaxBlockSize 1
[OGL LOG][Proc: 0]nuTilda: init_precond: 0.261 [ms]
[OGL LOG][StoppingCriterion.H:373] Creating stopping criterion with minIter 3 frequency 1
[OGL LOG][Proc: 0]nuTilda: generate_solver: 0.001 [ms]
[OGL LOG][Proc: 0]nuTilda: solve: 27.89 [ms]
[OGL LOG][Proc: 0]nuTilda: copy_x_back: 1.089 [ms]
[OGL LOG][lduLduBase.H:336] 
Statistics:
	Time per iteration: 13945 [mu s]
	Time per residual norm calculation: 231.000000 [mu s]
	Time per iteration and DOF: 2.210988 [ns]
	Retrieve results bandwidth 1.914000 [GByte/s]
[OGL LOG][Proc: 0]nuTilda: solve_multi_gpu: 35.177 [ms]
BJhipGKOBiCGStab:  Solving for nuTilda, Initial residual = 0.0147984963476598, Final residual = 0.001377117790696127, No Iterations 2
bounding nuTilda, min: -4.126146345894843e-05 max: 0.007071964874711371 average: 0.0003763592645584259
[INFO] TimeStep: 1584.932 [ms]
ExecutionTime = 110.53 s  ClockTime = 111 s

End

Finalising parallel run
