/*---------------------------------------------------------------------------*\
| =========                 |                                                 |
| \\      /  F ield         | OpenFOAM: The Open Source CFD Toolbox           |
|  \\    /   O peration     | Version:  2312                                  |
|   \\  /    A nd           | Website:  www.openfoam.com                      |
|    \\/     M anipulation  |                                                 |
\*---------------------------------------------------------------------------*/
Build  : a46b310f-20240104 OPENFOAM=2312 version=v2312
Arch   : "LSB;label=32;scalar=64"
Exec   : decomposePar -force
Date   : Feb 16 2024
Time   : 22:00:32
Host   : i20r02c03s06
PID    : 25304
--> FOAM Warning : 
    From Foam::fileName Foam::cwd_L()
    in file POSIX.C at line 552
    PWD is not the cwd() - reverting to physical description
I/O    : uncollated
--> FOAM Warning : 
    From Foam::fileName Foam::cwd_L()
    in file POSIX.C at line 552
    PWD is not the cwd() - reverting to physical description
Case   : /hppfs/scratch/0B/di35yan/lidDriven3D/workspace/b0444725db2887c76f9c408877efad5d/case
nProcs : 1
trapFpe: Floating point exception trapping enabled (FOAM_SIGFPE).
fileModificationChecking : Monitoring run-time modified files using timeStampMaster (fileModificationSkew 5, maxFileModificationPolls 20)
allowSystemOperations : Allowing user-supplied system call operations

// * * * * * * * * * * * * * * * * * * * * * * * * * * * * * * * * * * * * * //
Create time

--> FOAM Warning : 
    From void* Foam::dlLibraryTable::openLibrary(const Foam::fileName&, bool)
    in file db/dynamicLibrary/dlLibraryTable/dlLibraryTable.C at line 188
    Could not load "libpetscFoam.so"
libpetscFoam.so: cannot open shared object file: No such file or directory


Decomposing mesh

Create mesh

Calculating distribution of cells
Decomposition method simple [128] (region region0)

Finished decomposition in 44.61 s

Calculating original mesh data

Distributing cells to processors

Distributing faces to processors

Distributing points to processors

Constructing processor meshes

Processor 0
    Number of cells = 500000
    Number of points = 520251
    Number of faces shared with processor 1 = 10000
    Number of faces shared with processor 8 = 5000
    Number of faces shared with processor 32 = 5000
    Number of processor patches = 3
    Number of processor faces = 20000
    Number of boundary faces = 20000

Processor 1
    Number of cells = 500000
    Number of points = 520251
    Number of faces shared with processor 0 = 10000
    Number of faces shared with processor 2 = 10000
    Number of faces shared with processor 9 = 5000
    Number of faces shared with processor 33 = 5000
    Number of processor patches = 4
    Number of processor faces = 30000
    Number of boundary faces = 10000

Processor 2
    Number of cells = 500000
    Number of points = 520251
    Number of faces shared with processor 1 = 10000
    Number of faces shared with processor 3 = 10000
    Number of faces shared with processor 10 = 5000
    Number of faces shared with processor 34 = 5000
    Number of processor patches = 4
    Number of processor faces = 30000
    Number of boundary faces = 10000

Processor 3
    Number of cells = 500000
    Number of points = 520251
    Number of faces shared with processor 2 = 10000
    Number of faces shared with processor 4 = 10000
    Number of faces shared with processor 11 = 5000
    Number of faces shared with processor 35 = 5000
    Number of processor patches = 4
    Number of processor faces = 30000
    Number of boundary faces = 10000

Processor 4
    Number of cells = 500000
    Number of points = 520251
    Number of faces shared with processor 3 = 10000
    Number of faces shared with processor 5 = 10000
    Number of faces shared with processor 12 = 5000
    Number of faces shared with processor 36 = 5000
    Number of processor patches = 4
    Number of processor faces = 30000
    Number of boundary faces = 10000

Processor 5
    Number of cells = 500000
    Number of points = 520251
    Number of faces shared with processor 4 = 10000
    Number of faces shared with processor 6 = 10000
    Number of faces shared with processor 13 = 5000
    Number of faces shared with processor 37 = 5000
    Number of processor patches = 4
    Number of processor faces = 30000
    Number of boundary faces = 10000

Processor 6
    Number of cells = 499375
    Number of points = 519626
    Number of faces shared with processor 5 = 10000
    Number of faces shared with processor 7 = 9975
    Number of faces shared with processor 14 = 5000
    Number of faces shared with processor 38 = 5074
    Number of processor patches = 4
    Number of processor faces = 30049
    Number of boundary faces = 9951

Processor 7
    Number of cells = 498125
    Number of points = 518351
    Number of faces shared with processor 6 = 9975
    Number of faces shared with processor 15 = 5000
    Number of faces shared with processor 39 = 5075
    Number of processor patches = 3
    Number of processor faces = 20050
    Number of boundary faces = 19900

Processor 8
    Number of cells = 500000
    Number of points = 520251
    Number of faces shared with processor 0 = 5000
    Number of faces shared with processor 9 = 10000
    Number of faces shared with processor 16 = 5000
    Number of faces shared with processor 40 = 5000
    Number of processor patches = 4
    Number of processor faces = 25000
    Number of boundary faces = 15000

Processor 9
    Number of cells = 500000
    Number of points = 520251
    Number of faces shared with processor 1 = 5000
    Number of faces shared with processor 8 = 10000
    Number of faces shared with processor 10 = 10000
    Number of faces shared with processor 17 = 5000
    Number of faces shared with processor 41 = 5000
    Number of processor patches = 5
    Number of processor faces = 35000
    Number of boundary faces = 5000

Processor 10
    Number of cells = 500000
    Number of points = 520251
    Number of faces shared with processor 2 = 5000
    Number of faces shared with processor 9 = 10000
    Number of faces shared with processor 11 = 10000
    Number of faces shared with processor 18 = 5000
    Number of faces shared with processor 42 = 5000
    Number of processor patches = 5
    Number of processor faces = 35000
    Number of boundary faces = 5000

Processor 11
    Number of cells = 500000
    Number of points = 520251
    Number of faces shared with processor 3 = 5000
    Number of faces shared with processor 10 = 10000
    Number of faces shared with processor 12 = 10000
    Number of faces shared with processor 19 = 5000
    Number of faces shared with processor 43 = 5000
    Number of processor patches = 5
    Number of processor faces = 35000
    Number of boundary faces = 5000

Processor 12
    Number of cells = 500000
    Number of points = 520251
    Number of faces shared with processor 4 = 5000
    Number of faces shared with processor 11 = 10000
    Number of faces shared with processor 13 = 10000
    Number of faces shared with processor 20 = 5000
    Number of faces shared with processor 44 = 5000
    Number of processor patches = 5
    Number of processor faces = 35000
    Number of boundary faces = 5000

Processor 13
    Number of cells = 500000
    Number of points = 520251
    Number of faces shared with processor 5 = 5000
    Number of faces shared with processor 12 = 10000
    Number of faces shared with processor 14 = 10000
    Number of faces shared with processor 21 = 5000
    Number of faces shared with processor 45 = 5000
    Number of processor patches = 5
    Number of processor faces = 35000
    Number of boundary faces = 5000

Processor 14
    Number of cells = 500000
    Number of points = 520251
    Number of faces shared with processor 6 = 5000
    Number of faces shared with processor 13 = 10000
    Number of faces shared with processor 15 = 10000
    Number of faces shared with processor 22 = 5000
    Number of faces shared with processor 46 = 5000
    Number of processor patches = 5
    Number of processor faces = 35000
    Number of boundary faces = 5000

Processor 15
    Number of cells = 500000
    Number of points = 520251
    Number of faces shared with processor 7 = 5000
    Number of faces shared with processor 14 = 10000
    Number of faces shared with processor 23 = 5000
    Number of faces shared with processor 47 = 5000
    Number of processor patches = 4
    Number of processor faces = 25000
    Number of boundary faces = 15000

Processor 16
    Number of cells = 500000
    Number of points = 520251
    Number of faces shared with processor 8 = 5000
    Number of faces shared with processor 17 = 10000
    Number of faces shared with processor 24 = 5000
    Number of faces shared with processor 48 = 5000
    Number of processor patches = 4
    Number of processor faces = 25000
    Number of boundary faces = 15000

Processor 17
    Number of cells = 500000
    Number of points = 520251
    Number of faces shared with processor 9 = 5000
    Number of faces shared with processor 16 = 10000
    Number of faces shared with processor 18 = 10000
    Number of faces shared with processor 25 = 5000
    Number of faces shared with processor 49 = 5000
    Number of processor patches = 5
    Number of processor faces = 35000
    Number of boundary faces = 5000

Processor 18
    Number of cells = 500000
    Number of points = 520251
    Number of faces shared with processor 10 = 5000
    Number of faces shared with processor 17 = 10000
    Number of faces shared with processor 19 = 10000
    Number of faces shared with processor 26 = 5000
    Number of faces shared with processor 50 = 5000
    Number of processor patches = 5
    Number of processor faces = 35000
    Number of boundary faces = 5000

Processor 19
    Number of cells = 500000
    Number of points = 520251
    Number of faces shared with processor 11 = 5000
    Number of faces shared with processor 18 = 10000
    Number of faces shared with processor 20 = 10000
    Number of faces shared with processor 27 = 5000
    Number of faces shared with processor 51 = 5000
    Number of processor patches = 5
    Number of processor faces = 35000
    Number of boundary faces = 5000

Processor 20
    Number of cells = 500000
    Number of points = 520251
    Number of faces shared with processor 12 = 5000
    Number of faces shared with processor 19 = 10000
    Number of faces shared with processor 21 = 10000
    Number of faces shared with processor 28 = 5000
    Number of faces shared with processor 52 = 5000
    Number of processor patches = 5
    Number of processor faces = 35000
    Number of boundary faces = 5000

Processor 21
    Number of cells = 500000
    Number of points = 520251
    Number of faces shared with processor 13 = 5000
    Number of faces shared with processor 20 = 10000
    Number of faces shared with processor 22 = 10000
    Number of faces shared with processor 29 = 5000
    Number of faces shared with processor 53 = 5000
    Number of processor patches = 5
    Number of processor faces = 35000
    Number of boundary faces = 5000

Processor 22
    Number of cells = 500000
    Number of points = 520251
    Number of faces shared with processor 14 = 5000
    Number of faces shared with processor 21 = 10000
    Number of faces shared with processor 23 = 10000
    Number of faces shared with processor 30 = 5000
    Number of faces shared with processor 54 = 5000
    Number of processor patches = 5
    Number of processor faces = 35000
    Number of boundary faces = 5000

Processor 23
    Number of cells = 500000
    Number of points = 520251
    Number of faces shared with processor 15 = 5000
    Number of faces shared with processor 22 = 10000
    Number of faces shared with processor 31 = 5000
    Number of faces shared with processor 55 = 5000
    Number of processor patches = 4
    Number of processor faces = 25000
    Number of boundary faces = 15000

Processor 24
    Number of cells = 501875
    Number of points = 522227
    Number of faces shared with processor 16 = 5000
    Number of faces shared with processor 25 = 10025
    Number of faces shared with processor 56 = 5075
    Number of processor patches = 3
    Number of processor faces = 20100
    Number of boundary faces = 20100

Processor 25
    Number of cells = 500625
    Number of points = 520951
    Number of faces shared with processor 17 = 5000
    Number of faces shared with processor 24 = 10025
    Number of faces shared with processor 26 = 10000
    Number of faces shared with processor 57 = 5074
    Number of processor patches = 4
    Number of processor faces = 30099
    Number of boundary faces = 10049

Processor 26
    Number of cells = 500000
    Number of points = 520251
    Number of faces shared with processor 18 = 5000
    Number of faces shared with processor 25 = 10000
    Number of faces shared with processor 27 = 10000
    Number of faces shared with processor 58 = 5000
    Number of processor patches = 4
    Number of processor faces = 30000
    Number of boundary faces = 10000

Processor 27
    Number of cells = 500000
    Number of points = 520251
    Number of faces shared with processor 19 = 5000
    Number of faces shared with processor 26 = 10000
    Number of faces shared with processor 28 = 10000
    Number of faces shared with processor 59 = 5000
    Number of processor patches = 4
    Number of processor faces = 30000
    Number of boundary faces = 10000

Processor 28
    Number of cells = 500000
    Number of points = 520251
    Number of faces shared with processor 20 = 5000
    Number of faces shared with processor 27 = 10000
    Number of faces shared with processor 29 = 10000
    Number of faces shared with processor 60 = 5000
    Number of processor patches = 4
    Number of processor faces = 30000
    Number of boundary faces = 10000

Processor 29
    Number of cells = 500000
    Number of points = 520251
    Number of faces shared with processor 21 = 5000
    Number of faces shared with processor 28 = 10000
    Number of faces shared with processor 30 = 10000
    Number of faces shared with processor 61 = 5000
    Number of processor patches = 4
    Number of processor faces = 30000
    Number of boundary faces = 10000

Processor 30
    Number of cells = 500000
    Number of points = 520251
    Number of faces shared with processor 22 = 5000
    Number of faces shared with processor 29 = 10000
    Number of faces shared with processor 31 = 10000
    Number of faces shared with processor 62 = 5000
    Number of processor patches = 4
    Number of processor faces = 30000
    Number of boundary faces = 10000

Processor 31
    Number of cells = 500000
    Number of points = 520251
    Number of faces shared with processor 23 = 5000
    Number of faces shared with processor 30 = 10000
    Number of faces shared with processor 63 = 5000
    Number of processor patches = 3
    Number of processor faces = 20000
    Number of boundary faces = 20000

Processor 32
    Number of cells = 500000
    Number of points = 520251
    Number of faces shared with processor 0 = 5000
    Number of faces shared with processor 33 = 10000
    Number of faces shared with processor 40 = 5000
    Number of faces shared with processor 64 = 5000
    Number of processor patches = 4
    Number of processor faces = 25000
    Number of boundary faces = 15000

Processor 33
    Number of cells = 500000
    Number of points = 520251
    Number of faces shared with processor 1 = 5000
    Number of faces shared with processor 32 = 10000
    Number of faces shared with processor 34 = 10000
    Number of faces shared with processor 41 = 5000
    Number of faces shared with processor 65 = 5000
    Number of processor patches = 5
    Number of processor faces = 35000
    Number of boundary faces = 5000

Processor 34
    Number of cells = 500000
    Number of points = 520251
    Number of faces shared with processor 2 = 5000
    Number of faces shared with processor 33 = 10000
    Number of faces shared with processor 35 = 10000
    Number of faces shared with processor 42 = 5000
    Number of faces shared with processor 66 = 5000
    Number of processor patches = 5
    Number of processor faces = 35000
    Number of boundary faces = 5000

Processor 35
    Number of cells = 500000
    Number of points = 520251
    Number of faces shared with processor 3 = 5000
    Number of faces shared with processor 34 = 10000
    Number of faces shared with processor 36 = 10000
    Number of faces shared with processor 43 = 5000
    Number of faces shared with processor 67 = 5000
    Number of processor patches = 5
    Number of processor faces = 35000
    Number of boundary faces = 5000

Processor 36
    Number of cells = 500000
    Number of points = 520251
    Number of faces shared with processor 4 = 5000
    Number of faces shared with processor 35 = 10000
    Number of faces shared with processor 37 = 10000
    Number of faces shared with processor 44 = 5000
    Number of faces shared with processor 68 = 5000
    Number of processor patches = 5
    Number of processor faces = 35000
    Number of boundary faces = 5000

Processor 37
    Number of cells = 500000
    Number of points = 520251
    Number of faces shared with processor 5 = 5000
    Number of faces shared with processor 36 = 10000
    Number of faces shared with processor 38 = 10000
    Number of faces shared with processor 45 = 5000
    Number of faces shared with processor 69 = 5000
    Number of processor patches = 5
    Number of processor faces = 35000
    Number of boundary faces = 5000

Processor 38
    Number of cells = 500000
    Number of points = 520326
    Number of faces shared with processor 6 = 5074
    Number of faces shared with processor 37 = 10000
    Number of faces shared with processor 39 = 10000
    Number of faces shared with processor 46 = 5000
    Number of faces shared with processor 70 = 5074
    Number of processor patches = 5
    Number of processor faces = 35148
    Number of boundary faces = 5000

Processor 39
    Number of cells = 500000
    Number of points = 520327
    Number of faces shared with processor 7 = 5075
    Number of faces shared with processor 38 = 10000
    Number of faces shared with processor 47 = 5000
    Number of faces shared with processor 71 = 5075
    Number of processor patches = 4
    Number of processor faces = 25150
    Number of boundary faces = 15000

Processor 40
    Number of cells = 500000
    Number of points = 520251
    Number of faces shared with processor 8 = 5000
    Number of faces shared with processor 32 = 5000
    Number of faces shared with processor 41 = 10000
    Number of faces shared with processor 48 = 5000
    Number of faces shared with processor 72 = 5000
    Number of processor patches = 5
    Number of processor faces = 30000
    Number of boundary faces = 10000

Processor 41
    Number of cells = 500000
    Number of points = 520251
    Number of faces shared with processor 9 = 5000
    Number of faces shared with processor 33 = 5000
    Number of faces shared with processor 40 = 10000
    Number of faces shared with processor 42 = 10000
    Number of faces shared with processor 49 = 5000
    Number of faces shared with processor 73 = 5000
    Number of processor patches = 6
    Number of processor faces = 40000
    Number of boundary faces = 0

Processor 42
    Number of cells = 500000
    Number of points = 520251
    Number of faces shared with processor 10 = 5000
    Number of faces shared with processor 34 = 5000
    Number of faces shared with processor 41 = 10000
    Number of faces shared with processor 43 = 10000
    Number of faces shared with processor 50 = 5000
    Number of faces shared with processor 74 = 5000
    Number of processor patches = 6
    Number of processor faces = 40000
    Number of boundary faces = 0

Processor 43
    Number of cells = 500000
    Number of points = 520251
    Number of faces shared with processor 11 = 5000
    Number of faces shared with processor 35 = 5000
    Number of faces shared with processor 42 = 10000
    Number of faces shared with processor 44 = 10000
    Number of faces shared with processor 51 = 5000
    Number of faces shared with processor 75 = 5000
    Number of processor patches = 6
    Number of processor faces = 40000
    Number of boundary faces = 0

Processor 44
    Number of cells = 500000
    Number of points = 520251
    Number of faces shared with processor 12 = 5000
    Number of faces shared with processor 36 = 5000
    Number of faces shared with processor 43 = 10000
    Number of faces shared with processor 45 = 10000
    Number of faces shared with processor 52 = 5000
    Number of faces shared with processor 76 = 5000
    Number of processor patches = 6
    Number of processor faces = 40000
    Number of boundary faces = 0

Processor 45
    Number of cells = 500000
    Number of points = 520251
    Number of faces shared with processor 13 = 5000
    Number of faces shared with processor 37 = 5000
    Number of faces shared with processor 44 = 10000
    Number of faces shared with processor 46 = 10000
    Number of faces shared with processor 53 = 5000
    Number of faces shared with processor 77 = 5000
    Number of processor patches = 6
    Number of processor faces = 40000
    Number of boundary faces = 0

Processor 46
    Number of cells = 500000
    Number of points = 520251
    Number of faces shared with processor 14 = 5000
    Number of faces shared with processor 38 = 5000
    Number of faces shared with processor 45 = 10000
    Number of faces shared with processor 47 = 10000
    Number of faces shared with processor 54 = 5000
    Number of faces shared with processor 78 = 5000
    Number of processor patches = 6
    Number of processor faces = 40000
    Number of boundary faces = 0

Processor 47
    Number of cells = 500000
    Number of points = 520251
    Number of faces shared with processor 15 = 5000
    Number of faces shared with processor 39 = 5000
    Number of faces shared with processor 46 = 10000
    Number of faces shared with processor 55 = 5000
    Number of faces shared with processor 79 = 5000
    Number of processor patches = 5
    Number of processor faces = 30000
    Number of boundary faces = 10000

Processor 48
    Number of cells = 500000
    Number of points = 520251
    Number of faces shared with processor 16 = 5000
    Number of faces shared with processor 40 = 5000
    Number of faces shared with processor 49 = 10000
    Number of faces shared with processor 56 = 5000
    Number of faces shared with processor 80 = 5000
    Number of processor patches = 5
    Number of processor faces = 30000
    Number of boundary faces = 10000

Processor 49
    Number of cells = 500000
    Number of points = 520251
    Number of faces shared with processor 17 = 5000
    Number of faces shared with processor 41 = 5000
    Number of faces shared with processor 48 = 10000
    Number of faces shared with processor 50 = 10000
    Number of faces shared with processor 57 = 5000
    Number of faces shared with processor 81 = 5000
    Number of processor patches = 6
    Number of processor faces = 40000
    Number of boundary faces = 0

Processor 50
    Number of cells = 500000
    Number of points = 520251
    Number of faces shared with processor 18 = 5000
    Number of faces shared with processor 42 = 5000
    Number of faces shared with processor 49 = 10000
    Number of faces shared with processor 51 = 10000
    Number of faces shared with processor 58 = 5000
    Number of faces shared with processor 82 = 5000
    Number of processor patches = 6
    Number of processor faces = 40000
    Number of boundary faces = 0

Processor 51
    Number of cells = 500000
    Number of points = 520251
    Number of faces shared with processor 19 = 5000
    Number of faces shared with processor 43 = 5000
    Number of faces shared with processor 50 = 10000
    Number of faces shared with processor 52 = 10000
    Number of faces shared with processor 59 = 5000
    Number of faces shared with processor 83 = 5000
    Number of processor patches = 6
    Number of processor faces = 40000
    Number of boundary faces = 0

Processor 52
    Number of cells = 500000
    Number of points = 520251
    Number of faces shared with processor 20 = 5000
    Number of faces shared with processor 44 = 5000
    Number of faces shared with processor 51 = 10000
    Number of faces shared with processor 53 = 10000
    Number of faces shared with processor 60 = 5000
    Number of faces shared with processor 84 = 5000
    Number of processor patches = 6
    Number of processor faces = 40000
    Number of boundary faces = 0

Processor 53
    Number of cells = 500000
    Number of points = 520251
    Number of faces shared with processor 21 = 5000
    Number of faces shared with processor 45 = 5000
    Number of faces shared with processor 52 = 10000
    Number of faces shared with processor 54 = 10000
    Number of faces shared with processor 61 = 5000
    Number of faces shared with processor 85 = 5000
    Number of processor patches = 6
    Number of processor faces = 40000
    Number of boundary faces = 0

Processor 54
    Number of cells = 500000
    Number of points = 520251
    Number of faces shared with processor 22 = 5000
    Number of faces shared with processor 46 = 5000
    Number of faces shared with processor 53 = 10000
    Number of faces shared with processor 55 = 10000
    Number of faces shared with processor 62 = 5000
    Number of faces shared with processor 86 = 5000
    Number of processor patches = 6
    Number of processor faces = 40000
    Number of boundary faces = 0

Processor 55
    Number of cells = 500000
    Number of points = 520251
    Number of faces shared with processor 23 = 5000
    Number of faces shared with processor 47 = 5000
    Number of faces shared with processor 54 = 10000
    Number of faces shared with processor 63 = 5000
    Number of faces shared with processor 87 = 5000
    Number of processor patches = 5
    Number of processor faces = 30000
    Number of boundary faces = 10000

Processor 56
    Number of cells = 500000
    Number of points = 520327
    Number of faces shared with processor 24 = 5075
    Number of faces shared with processor 48 = 5000
    Number of faces shared with processor 57 = 10000
    Number of faces shared with processor 88 = 5075
    Number of processor patches = 4
    Number of processor faces = 25150
    Number of boundary faces = 15000

Processor 57
    Number of cells = 500000
    Number of points = 520326
    Number of faces shared with processor 25 = 5074
    Number of faces shared with processor 49 = 5000
    Number of faces shared with processor 56 = 10000
    Number of faces shared with processor 58 = 10000
    Number of faces shared with processor 89 = 5074
    Number of processor patches = 5
    Number of processor faces = 35148
    Number of boundary faces = 5000

Processor 58
    Number of cells = 500000
    Number of points = 520251
    Number of faces shared with processor 26 = 5000
    Number of faces shared with processor 50 = 5000
    Number of faces shared with processor 57 = 10000
    Number of faces shared with processor 59 = 10000
    Number of faces shared with processor 90 = 5000
    Number of processor patches = 5
    Number of processor faces = 35000
    Number of boundary faces = 5000

Processor 59
    Number of cells = 500000
    Number of points = 520251
    Number of faces shared with processor 27 = 5000
    Number of faces shared with processor 51 = 5000
    Number of faces shared with processor 58 = 10000
    Number of faces shared with processor 60 = 10000
    Number of faces shared with processor 91 = 5000
    Number of processor patches = 5
    Number of processor faces = 35000
    Number of boundary faces = 5000

Processor 60
    Number of cells = 500000
    Number of points = 520251
    Number of faces shared with processor 28 = 5000
    Number of faces shared with processor 52 = 5000
    Number of faces shared with processor 59 = 10000
    Number of faces shared with processor 61 = 10000
    Number of faces shared with processor 92 = 5000
    Number of processor patches = 5
    Number of processor faces = 35000
    Number of boundary faces = 5000

Processor 61
    Number of cells = 500000
    Number of points = 520251
    Number of faces shared with processor 29 = 5000
    Number of faces shared with processor 53 = 5000
    Number of faces shared with processor 60 = 10000
    Number of faces shared with processor 62 = 10000
    Number of faces shared with processor 93 = 5000
    Number of processor patches = 5
    Number of processor faces = 35000
    Number of boundary faces = 5000

Processor 62
    Number of cells = 500000
    Number of points = 520251
    Number of faces shared with processor 30 = 5000
    Number of faces shared with processor 54 = 5000
    Number of faces shared with processor 61 = 10000
    Number of faces shared with processor 63 = 10000
    Number of faces shared with processor 94 = 5000
    Number of processor patches = 5
    Number of processor faces = 35000
    Number of boundary faces = 5000

Processor 63
    Number of cells = 500000
    Number of points = 520251
    Number of faces shared with processor 31 = 5000
    Number of faces shared with processor 55 = 5000
    Number of faces shared with processor 62 = 10000
    Number of faces shared with processor 95 = 5000
    Number of processor patches = 4
    Number of processor faces = 25000
    Number of boundary faces = 15000

Processor 64
    Number of cells = 500000
    Number of points = 520251
    Number of faces shared with processor 32 = 5000
    Number of faces shared with processor 65 = 10000
    Number of faces shared with processor 72 = 5000
    Number of faces shared with processor 96 = 5000
    Number of processor patches = 4
    Number of processor faces = 25000
    Number of boundary faces = 15000

Processor 65
    Number of cells = 500000
    Number of points = 520251
    Number of faces shared with processor 33 = 5000
    Number of faces shared with processor 64 = 10000
    Number of faces shared with processor 66 = 10000
    Number of faces shared with processor 73 = 5000
    Number of faces shared with processor 97 = 5000
    Number of processor patches = 5
    Number of processor faces = 35000
    Number of boundary faces = 5000

Processor 66
    Number of cells = 500000
    Number of points = 520251
    Number of faces shared with processor 34 = 5000
    Number of faces shared with processor 65 = 10000
    Number of faces shared with processor 67 = 10000
    Number of faces shared with processor 74 = 5000
    Number of faces shared with processor 98 = 5000
    Number of processor patches = 5
    Number of processor faces = 35000
    Number of boundary faces = 5000

Processor 67
    Number of cells = 500000
    Number of points = 520251
    Number of faces shared with processor 35 = 5000
    Number of faces shared with processor 66 = 10000
    Number of faces shared with processor 68 = 10000
    Number of faces shared with processor 75 = 5000
    Number of faces shared with processor 99 = 5000
    Number of processor patches = 5
    Number of processor faces = 35000
    Number of boundary faces = 5000

Processor 68
    Number of cells = 500000
    Number of points = 520251
    Number of faces shared with processor 36 = 5000
    Number of faces shared with processor 67 = 10000
    Number of faces shared with processor 69 = 10000
    Number of faces shared with processor 76 = 5000
    Number of faces shared with processor 100 = 5000
    Number of processor patches = 5
    Number of processor faces = 35000
    Number of boundary faces = 5000

Processor 69
    Number of cells = 500000
    Number of points = 520251
    Number of faces shared with processor 37 = 5000
    Number of faces shared with processor 68 = 10000
    Number of faces shared with processor 70 = 10000
    Number of faces shared with processor 77 = 5000
    Number of faces shared with processor 101 = 5000
    Number of processor patches = 5
    Number of processor faces = 35000
    Number of boundary faces = 5000

Processor 70
    Number of cells = 500000
    Number of points = 520326
    Number of faces shared with processor 38 = 5074
    Number of faces shared with processor 69 = 10000
    Number of faces shared with processor 71 = 10000
    Number of faces shared with processor 78 = 5000
    Number of faces shared with processor 102 = 5074
    Number of processor patches = 5
    Number of processor faces = 35148
    Number of boundary faces = 5000

Processor 71
    Number of cells = 500000
    Number of points = 520327
    Number of faces shared with processor 39 = 5075
    Number of faces shared with processor 70 = 10000
    Number of faces shared with processor 79 = 5000
    Number of faces shared with processor 103 = 5075
    Number of processor patches = 4
    Number of processor faces = 25150
    Number of boundary faces = 15000

Processor 72
    Number of cells = 500000
    Number of points = 520251
    Number of faces shared with processor 40 = 5000
    Number of faces shared with processor 64 = 5000
    Number of faces shared with processor 73 = 10000
    Number of faces shared with processor 80 = 5000
    Number of faces shared with processor 104 = 5000
    Number of processor patches = 5
    Number of processor faces = 30000
    Number of boundary faces = 10000

Processor 73
    Number of cells = 500000
    Number of points = 520251
    Number of faces shared with processor 41 = 5000
    Number of faces shared with processor 65 = 5000
    Number of faces shared with processor 72 = 10000
    Number of faces shared with processor 74 = 10000
    Number of faces shared with processor 81 = 5000
    Number of faces shared with processor 105 = 5000
    Number of processor patches = 6
    Number of processor faces = 40000
    Number of boundary faces = 0

Processor 74
    Number of cells = 500000
    Number of points = 520251
    Number of faces shared with processor 42 = 5000
    Number of faces shared with processor 66 = 5000
    Number of faces shared with processor 73 = 10000
    Number of faces shared with processor 75 = 10000
    Number of faces shared with processor 82 = 5000
    Number of faces shared with processor 106 = 5000
    Number of processor patches = 6
    Number of processor faces = 40000
    Number of boundary faces = 0

Processor 75
    Number of cells = 500000
    Number of points = 520251
    Number of faces shared with processor 43 = 5000
    Number of faces shared with processor 67 = 5000
    Number of faces shared with processor 74 = 10000
    Number of faces shared with processor 76 = 10000
    Number of faces shared with processor 83 = 5000
    Number of faces shared with processor 107 = 5000
    Number of processor patches = 6
    Number of processor faces = 40000
    Number of boundary faces = 0

Processor 76
    Number of cells = 500000
    Number of points = 520251
    Number of faces shared with processor 44 = 5000
    Number of faces shared with processor 68 = 5000
    Number of faces shared with processor 75 = 10000
    Number of faces shared with processor 77 = 10000
    Number of faces shared with processor 84 = 5000
    Number of faces shared with processor 108 = 5000
    Number of processor patches = 6
    Number of processor faces = 40000
    Number of boundary faces = 0

Processor 77
    Number of cells = 500000
    Number of points = 520251
    Number of faces shared with processor 45 = 5000
    Number of faces shared with processor 69 = 5000
    Number of faces shared with processor 76 = 10000
    Number of faces shared with processor 78 = 10000
    Number of faces shared with processor 85 = 5000
    Number of faces shared with processor 109 = 5000
    Number of processor patches = 6
    Number of processor faces = 40000
    Number of boundary faces = 0

Processor 78
    Number of cells = 500000
    Number of points = 520251
    Number of faces shared with processor 46 = 5000
    Number of faces shared with processor 70 = 5000
    Number of faces shared with processor 77 = 10000
    Number of faces shared with processor 79 = 10000
    Number of faces shared with processor 86 = 5000
    Number of faces shared with processor 110 = 5000
    Number of processor patches = 6
    Number of processor faces = 40000
    Number of boundary faces = 0

Processor 79
    Number of cells = 500000
    Number of points = 520251
    Number of faces shared with processor 47 = 5000
    Number of faces shared with processor 71 = 5000
    Number of faces shared with processor 78 = 10000
    Number of faces shared with processor 87 = 5000
    Number of faces shared with processor 111 = 5000
    Number of processor patches = 5
    Number of processor faces = 30000
    Number of boundary faces = 10000

Processor 80
    Number of cells = 500000
    Number of points = 520251
    Number of faces shared with processor 48 = 5000
    Number of faces shared with processor 72 = 5000
    Number of faces shared with processor 81 = 10000
    Number of faces shared with processor 88 = 5000
    Number of faces shared with processor 112 = 5000
    Number of processor patches = 5
    Number of processor faces = 30000
    Number of boundary faces = 10000

Processor 81
    Number of cells = 500000
    Number of points = 520251
    Number of faces shared with processor 49 = 5000
    Number of faces shared with processor 73 = 5000
    Number of faces shared with processor 80 = 10000
    Number of faces shared with processor 82 = 10000
    Number of faces shared with processor 89 = 5000
    Number of faces shared with processor 113 = 5000
    Number of processor patches = 6
    Number of processor faces = 40000
    Number of boundary faces = 0

Processor 82
    Number of cells = 500000
    Number of points = 520251
    Number of faces shared with processor 50 = 5000
    Number of faces shared with processor 74 = 5000
    Number of faces shared with processor 81 = 10000
    Number of faces shared with processor 83 = 10000
    Number of faces shared with processor 90 = 5000
    Number of faces shared with processor 114 = 5000
    Number of processor patches = 6
    Number of processor faces = 40000
    Number of boundary faces = 0

Processor 83
    Number of cells = 500000
    Number of points = 520251
    Number of faces shared with processor 51 = 5000
    Number of faces shared with processor 75 = 5000
    Number of faces shared with processor 82 = 10000
    Number of faces shared with processor 84 = 10000
    Number of faces shared with processor 91 = 5000
    Number of faces shared with processor 115 = 5000
    Number of processor patches = 6
    Number of processor faces = 40000
    Number of boundary faces = 0

Processor 84
    Number of cells = 500000
    Number of points = 520251
    Number of faces shared with processor 52 = 5000
    Number of faces shared with processor 76 = 5000
    Number of faces shared with processor 83 = 10000
    Number of faces shared with processor 85 = 10000
    Number of faces shared with processor 92 = 5000
    Number of faces shared with processor 116 = 5000
    Number of processor patches = 6
    Number of processor faces = 40000
    Number of boundary faces = 0

Processor 85
    Number of cells = 500000
    Number of points = 520251
    Number of faces shared with processor 53 = 5000
    Number of faces shared with processor 77 = 5000
    Number of faces shared with processor 84 = 10000
    Number of faces shared with processor 86 = 10000
    Number of faces shared with processor 93 = 5000
    Number of faces shared with processor 117 = 5000
    Number of processor patches = 6
    Number of processor faces = 40000
    Number of boundary faces = 0

Processor 86
    Number of cells = 500000
    Number of points = 520251
    Number of faces shared with processor 54 = 5000
    Number of faces shared with processor 78 = 5000
    Number of faces shared with processor 85 = 10000
    Number of faces shared with processor 87 = 10000
    Number of faces shared with processor 94 = 5000
    Number of faces shared with processor 118 = 5000
    Number of processor patches = 6
    Number of processor faces = 40000
    Number of boundary faces = 0

Processor 87
    Number of cells = 500000
    Number of points = 520251
    Number of faces shared with processor 55 = 5000
    Number of faces shared with processor 79 = 5000
    Number of faces shared with processor 86 = 10000
    Number of faces shared with processor 95 = 5000
    Number of faces shared with processor 119 = 5000
    Number of processor patches = 5
    Number of processor faces = 30000
    Number of boundary faces = 10000

Processor 88
    Number of cells = 500000
    Number of points = 520327
    Number of faces shared with processor 56 = 5075
    Number of faces shared with processor 80 = 5000
    Number of faces shared with processor 89 = 10000
    Number of faces shared with processor 120 = 5075
    Number of processor patches = 4
    Number of processor faces = 25150
    Number of boundary faces = 15000

Processor 89
    Number of cells = 500000
    Number of points = 520326
    Number of faces shared with processor 57 = 5074
    Number of faces shared with processor 81 = 5000
    Number of faces shared with processor 88 = 10000
    Number of faces shared with processor 90 = 10000
    Number of faces shared with processor 121 = 5074
    Number of processor patches = 5
    Number of processor faces = 35148
    Number of boundary faces = 5000

Processor 90
    Number of cells = 500000
    Number of points = 520251
    Number of faces shared with processor 58 = 5000
    Number of faces shared with processor 82 = 5000
    Number of faces shared with processor 89 = 10000
    Number of faces shared with processor 91 = 10000
    Number of faces shared with processor 122 = 5000
    Number of processor patches = 5
    Number of processor faces = 35000
    Number of boundary faces = 5000

Processor 91
    Number of cells = 500000
    Number of points = 520251
    Number of faces shared with processor 59 = 5000
    Number of faces shared with processor 83 = 5000
    Number of faces shared with processor 90 = 10000
    Number of faces shared with processor 92 = 10000
    Number of faces shared with processor 123 = 5000
    Number of processor patches = 5
    Number of processor faces = 35000
    Number of boundary faces = 5000

Processor 92
    Number of cells = 500000
    Number of points = 520251
    Number of faces shared with processor 60 = 5000
    Number of faces shared with processor 84 = 5000
    Number of faces shared with processor 91 = 10000
    Number of faces shared with processor 93 = 10000
    Number of faces shared with processor 124 = 5000
    Number of processor patches = 5
    Number of processor faces = 35000
    Number of boundary faces = 5000

Processor 93
    Number of cells = 500000
    Number of points = 520251
    Number of faces shared with processor 61 = 5000
    Number of faces shared with processor 85 = 5000
    Number of faces shared with processor 92 = 10000
    Number of faces shared with processor 94 = 10000
    Number of faces shared with processor 125 = 5000
    Number of processor patches = 5
    Number of processor faces = 35000
    Number of boundary faces = 5000

Processor 94
    Number of cells = 500000
    Number of points = 520251
    Number of faces shared with processor 62 = 5000
    Number of faces shared with processor 86 = 5000
    Number of faces shared with processor 93 = 10000
    Number of faces shared with processor 95 = 10000
    Number of faces shared with processor 126 = 5000
    Number of processor patches = 5
    Number of processor faces = 35000
    Number of boundary faces = 5000

Processor 95
    Number of cells = 500000
    Number of points = 520251
    Number of faces shared with processor 63 = 5000
    Number of faces shared with processor 87 = 5000
    Number of faces shared with processor 94 = 10000
    Number of faces shared with processor 127 = 5000
    Number of processor patches = 4
    Number of processor faces = 25000
    Number of boundary faces = 15000

Processor 96
    Number of cells = 500000
    Number of points = 520251
    Number of faces shared with processor 64 = 5000
    Number of faces shared with processor 97 = 10000
    Number of faces shared with processor 104 = 5000
    Number of processor patches = 3
    Number of processor faces = 20000
    Number of boundary faces = 20000

Processor 97
    Number of cells = 500000
    Number of points = 520251
    Number of faces shared with processor 65 = 5000
    Number of faces shared with processor 96 = 10000
    Number of faces shared with processor 98 = 10000
    Number of faces shared with processor 105 = 5000
    Number of processor patches = 4
    Number of processor faces = 30000
    Number of boundary faces = 10000

Processor 98
    Number of cells = 500000
    Number of points = 520251
    Number of faces shared with processor 66 = 5000
    Number of faces shared with processor 97 = 10000
    Number of faces shared with processor 99 = 10000
    Number of faces shared with processor 106 = 5000
    Number of processor patches = 4
    Number of processor faces = 30000
    Number of boundary faces = 10000

Processor 99
    Number of cells = 500000
    Number of points = 520251
    Number of faces shared with processor 67 = 5000
    Number of faces shared with processor 98 = 10000
    Number of faces shared with processor 100 = 10000
    Number of faces shared with processor 107 = 5000
    Number of processor patches = 4
    Number of processor faces = 30000
    Number of boundary faces = 10000

Processor 100
    Number of cells = 500000
    Number of points = 520251
    Number of faces shared with processor 68 = 5000
    Number of faces shared with processor 99 = 10000
    Number of faces shared with processor 101 = 10000
    Number of faces shared with processor 108 = 5000
    Number of processor patches = 4
    Number of processor faces = 30000
    Number of boundary faces = 10000

Processor 101
    Number of cells = 500000
    Number of points = 520251
    Number of faces shared with processor 69 = 5000
    Number of faces shared with processor 100 = 10000
    Number of faces shared with processor 102 = 10000
    Number of faces shared with processor 109 = 5000
    Number of processor patches = 4
    Number of processor faces = 30000
    Number of boundary faces = 10000

Processor 102
    Number of cells = 500625
    Number of points = 520951
    Number of faces shared with processor 70 = 5074
    Number of faces shared with processor 101 = 10000
    Number of faces shared with processor 103 = 10025
    Number of faces shared with processor 110 = 5000
    Number of processor patches = 4
    Number of processor faces = 30099
    Number of boundary faces = 10049

Processor 103
    Number of cells = 501875
    Number of points = 522227
    Number of faces shared with processor 71 = 5075
    Number of faces shared with processor 102 = 10025
    Number of faces shared with processor 111 = 5000
    Number of processor patches = 3
    Number of processor faces = 20100
    Number of boundary faces = 20100

Processor 104
    Number of cells = 500000
    Number of points = 520251
    Number of faces shared with processor 72 = 5000
    Number of faces shared with processor 96 = 5000
    Number of faces shared with processor 105 = 10000
    Number of faces shared with processor 112 = 5000
    Number of processor patches = 4
    Number of processor faces = 25000
    Number of boundary faces = 15000

Processor 105
    Number of cells = 500000
    Number of points = 520251
    Number of faces shared with processor 73 = 5000
    Number of faces shared with processor 97 = 5000
    Number of faces shared with processor 104 = 10000
    Number of faces shared with processor 106 = 10000
    Number of faces shared with processor 113 = 5000
    Number of processor patches = 5
    Number of processor faces = 35000
    Number of boundary faces = 5000

Processor 106
    Number of cells = 500000
    Number of points = 520251
    Number of faces shared with processor 74 = 5000
    Number of faces shared with processor 98 = 5000
    Number of faces shared with processor 105 = 10000
    Number of faces shared with processor 107 = 10000
    Number of faces shared with processor 114 = 5000
    Number of processor patches = 5
    Number of processor faces = 35000
    Number of boundary faces = 5000

Processor 107
    Number of cells = 500000
    Number of points = 520251
    Number of faces shared with processor 75 = 5000
    Number of faces shared with processor 99 = 5000
    Number of faces shared with processor 106 = 10000
    Number of faces shared with processor 108 = 10000
    Number of faces shared with processor 115 = 5000
    Number of processor patches = 5
    Number of processor faces = 35000
    Number of boundary faces = 5000

Processor 108
    Number of cells = 500000
    Number of points = 520251
    Number of faces shared with processor 76 = 5000
    Number of faces shared with processor 100 = 5000
    Number of faces shared with processor 107 = 10000
    Number of faces shared with processor 109 = 10000
    Number of faces shared with processor 116 = 5000
    Number of processor patches = 5
    Number of processor faces = 35000
    Number of boundary faces = 5000

Processor 109
    Number of cells = 500000
    Number of points = 520251
    Number of faces shared with processor 77 = 5000
    Number of faces shared with processor 101 = 5000
    Number of faces shared with processor 108 = 10000
    Number of faces shared with processor 110 = 10000
    Number of faces shared with processor 117 = 5000
    Number of processor patches = 5
    Number of processor faces = 35000
    Number of boundary faces = 5000

Processor 110
    Number of cells = 500000
    Number of points = 520251
    Number of faces shared with processor 78 = 5000
    Number of faces shared with processor 102 = 5000
    Number of faces shared with processor 109 = 10000
    Number of faces shared with processor 111 = 10000
    Number of faces shared with processor 118 = 5000
    Number of processor patches = 5
    Number of processor faces = 35000
    Number of boundary faces = 5000

Processor 111
    Number of cells = 500000
    Number of points = 520251
    Number of faces shared with processor 79 = 5000
    Number of faces shared with processor 103 = 5000
    Number of faces shared with processor 110 = 10000
    Number of faces shared with processor 119 = 5000
    Number of processor patches = 4
    Number of processor faces = 25000
    Number of boundary faces = 15000

Processor 112
    Number of cells = 500000
    Number of points = 520251
    Number of faces shared with processor 80 = 5000
    Number of faces shared with processor 104 = 5000
    Number of faces shared with processor 113 = 10000
    Number of faces shared with processor 120 = 5000
    Number of processor patches = 4
    Number of processor faces = 25000
    Number of boundary faces = 15000

Processor 113
    Number of cells = 500000
    Number of points = 520251
    Number of faces shared with processor 81 = 5000
    Number of faces shared with processor 105 = 5000
    Number of faces shared with processor 112 = 10000
    Number of faces shared with processor 114 = 10000
    Number of faces shared with processor 121 = 5000
    Number of processor patches = 5
    Number of processor faces = 35000
    Number of boundary faces = 5000

Processor 114
    Number of cells = 500000
    Number of points = 520251
    Number of faces shared with processor 82 = 5000
    Number of faces shared with processor 106 = 5000
    Number of faces shared with processor 113 = 10000
    Number of faces shared with processor 115 = 10000
    Number of faces shared with processor 122 = 5000
    Number of processor patches = 5
    Number of processor faces = 35000
    Number of boundary faces = 5000

Processor 115
    Number of cells = 500000
    Number of points = 520251
    Number of faces shared with processor 83 = 5000
    Number of faces shared with processor 107 = 5000
    Number of faces shared with processor 114 = 10000
    Number of faces shared with processor 116 = 10000
    Number of faces shared with processor 123 = 5000
    Number of processor patches = 5
    Number of processor faces = 35000
    Number of boundary faces = 5000

Processor 116
    Number of cells = 500000
    Number of points = 520251
    Number of faces shared with processor 84 = 5000
    Number of faces shared with processor 108 = 5000
    Number of faces shared with processor 115 = 10000
    Number of faces shared with processor 117 = 10000
    Number of faces shared with processor 124 = 5000
    Number of processor patches = 5
    Number of processor faces = 35000
    Number of boundary faces = 5000

Processor 117
    Number of cells = 500000
    Number of points = 520251
    Number of faces shared with processor 85 = 5000
    Number of faces shared with processor 109 = 5000
    Number of faces shared with processor 116 = 10000
    Number of faces shared with processor 118 = 10000
    Number of faces shared with processor 125 = 5000
    Number of processor patches = 5
    Number of processor faces = 35000
    Number of boundary faces = 5000

Processor 118
    Number of cells = 500000
    Number of points = 520251
    Number of faces shared with processor 86 = 5000
    Number of faces shared with processor 110 = 5000
    Number of faces shared with processor 117 = 10000
    Number of faces shared with processor 119 = 10000
    Number of faces shared with processor 126 = 5000
    Number of processor patches = 5
    Number of processor faces = 35000
    Number of boundary faces = 5000

Processor 119
    Number of cells = 500000
    Number of points = 520251
    Number of faces shared with processor 87 = 5000
    Number of faces shared with processor 111 = 5000
    Number of faces shared with processor 118 = 10000
    Number of faces shared with processor 127 = 5000
    Number of processor patches = 4
    Number of processor faces = 25000
    Number of boundary faces = 15000

Processor 120
    Number of cells = 498125
    Number of points = 518351
    Number of faces shared with processor 88 = 5075
    Number of faces shared with processor 112 = 5000
    Number of faces shared with processor 121 = 9975
    Number of processor patches = 3
    Number of processor faces = 20050
    Number of boundary faces = 19900

Processor 121
    Number of cells = 499375
    Number of points = 519626
    Number of faces shared with processor 89 = 5074
    Number of faces shared with processor 113 = 5000
    Number of faces shared with processor 120 = 9975
    Number of faces shared with processor 122 = 10000
    Number of processor patches = 4
    Number of processor faces = 30049
    Number of boundary faces = 9951

Processor 122
    Number of cells = 500000
    Number of points = 520251
    Number of faces shared with processor 90 = 5000
    Number of faces shared with processor 114 = 5000
    Number of faces shared with processor 121 = 10000
    Number of faces shared with processor 123 = 10000
    Number of processor patches = 4
    Number of processor faces = 30000
    Number of boundary faces = 10000

Processor 123
    Number of cells = 500000
    Number of points = 520251
    Number of faces shared with processor 91 = 5000
    Number of faces shared with processor 115 = 5000
    Number of faces shared with processor 122 = 10000
    Number of faces shared with processor 124 = 10000
    Number of processor patches = 4
    Number of processor faces = 30000
    Number of boundary faces = 10000

Processor 124
    Number of cells = 500000
    Number of points = 520251
    Number of faces shared with processor 92 = 5000
    Number of faces shared with processor 116 = 5000
    Number of faces shared with processor 123 = 10000
    Number of faces shared with processor 125 = 10000
    Number of processor patches = 4
    Number of processor faces = 30000
    Number of boundary faces = 10000

Processor 125
    Number of cells = 500000
    Number of points = 520251
    Number of faces shared with processor 93 = 5000
    Number of faces shared with processor 117 = 5000
    Number of faces shared with processor 124 = 10000
    Number of faces shared with processor 126 = 10000
    Number of processor patches = 4
    Number of processor faces = 30000
    Number of boundary faces = 10000

Processor 126
    Number of cells = 500000
    Number of points = 520251
    Number of faces shared with processor 94 = 5000
    Number of faces shared with processor 118 = 5000
    Number of faces shared with processor 125 = 10000
    Number of faces shared with processor 127 = 10000
    Number of processor patches = 4
    Number of processor faces = 30000
    Number of boundary faces = 10000

Processor 127
    Number of cells = 500000
    Number of points = 520251
    Number of faces shared with processor 95 = 5000
    Number of faces shared with processor 119 = 5000
    Number of faces shared with processor 126 = 10000
    Number of processor patches = 3
    Number of processor faces = 20000
    Number of boundary faces = 20000

Number of processor faces = 2080894
Max number of cells = 501875 (0.375% above average 500000)
Max number of processor patches = 6 (26.3158% above average 4.75)
Max number of faces between processors = 40000 (23.024% above average 32514)

Time = 0

Processor 0: field transfer
--> FOAM Warning : 
    From void* Foam::dlLibraryTable::openLibrary(const Foam::fileName&, bool)
    in file db/dynamicLibrary/dlLibraryTable/dlLibraryTable.C at line 188
    Could not load "libpetscFoam.so"
libpetscFoam.so: cannot open shared object file: No such file or directory
Processor 1: field transfer
--> FOAM Warning : 
    From void* Foam::dlLibraryTable::openLibrary(const Foam::fileName&, bool)
    in file db/dynamicLibrary/dlLibraryTable/dlLibraryTable.C at line 188
    Could not load "libpetscFoam.so"
libpetscFoam.so: cannot open shared object file: No such file or directory
Processor 2: field transfer
--> FOAM Warning : 
    From void* Foam::dlLibraryTable::openLibrary(const Foam::fileName&, bool)
    in file db/dynamicLibrary/dlLibraryTable/dlLibraryTable.C at line 188
    Could not load "libpetscFoam.so"
libpetscFoam.so: cannot open shared object file: No such file or directory
Processor 3: field transfer
--> FOAM Warning : 
    From void* Foam::dlLibraryTable::openLibrary(const Foam::fileName&, bool)
    in file db/dynamicLibrary/dlLibraryTable/dlLibraryTable.C at line 188
    Could not load "libpetscFoam.so"
libpetscFoam.so: cannot open shared object file: No such file or directory
Processor 4: field transfer
--> FOAM Warning : 
    From void* Foam::dlLibraryTable::openLibrary(const Foam::fileName&, bool)
    in file db/dynamicLibrary/dlLibraryTable/dlLibraryTable.C at line 188
    Could not load "libpetscFoam.so"
libpetscFoam.so: cannot open shared object file: No such file or directory
Processor 5: field transfer
--> FOAM Warning : 
    From void* Foam::dlLibraryTable::openLibrary(const Foam::fileName&, bool)
    in file db/dynamicLibrary/dlLibraryTable/dlLibraryTable.C at line 188
    Could not load "libpetscFoam.so"
libpetscFoam.so: cannot open shared object file: No such file or directory
Processor 6: field transfer
--> FOAM Warning : 
    From void* Foam::dlLibraryTable::openLibrary(const Foam::fileName&, bool)
    in file db/dynamicLibrary/dlLibraryTable/dlLibraryTable.C at line 188
    Could not load "libpetscFoam.so"
libpetscFoam.so: cannot open shared object file: No such file or directory
Processor 7: field transfer
--> FOAM Warning : 
    From void* Foam::dlLibraryTable::openLibrary(const Foam::fileName&, bool)
    in file db/dynamicLibrary/dlLibraryTable/dlLibraryTable.C at line 188
    Could not load "libpetscFoam.so"
libpetscFoam.so: cannot open shared object file: No such file or directory
Processor 8: field transfer
--> FOAM Warning : 
    From void* Foam::dlLibraryTable::openLibrary(const Foam::fileName&, bool)
    in file db/dynamicLibrary/dlLibraryTable/dlLibraryTable.C at line 188
    Could not load "libpetscFoam.so"
libpetscFoam.so: cannot open shared object file: No such file or directory
Processor 9: field transfer
--> FOAM Warning : 
    From void* Foam::dlLibraryTable::openLibrary(const Foam::fileName&, bool)
    in file db/dynamicLibrary/dlLibraryTable/dlLibraryTable.C at line 188
    Could not load "libpetscFoam.so"
libpetscFoam.so: cannot open shared object file: No such file or directory
Processor 10: field transfer
--> FOAM Warning : 
    From void* Foam::dlLibraryTable::openLibrary(const Foam::fileName&, bool)
    in file db/dynamicLibrary/dlLibraryTable/dlLibraryTable.C at line 188
    Could not load "libpetscFoam.so"
libpetscFoam.so: cannot open shared object file: No such file or directory
Processor 11: field transfer
--> FOAM Warning : 
    From void* Foam::dlLibraryTable::openLibrary(const Foam::fileName&, bool)
    in file db/dynamicLibrary/dlLibraryTable/dlLibraryTable.C at line 188
    Could not load "libpetscFoam.so"
libpetscFoam.so: cannot open shared object file: No such file or directory
Processor 12: field transfer
--> FOAM Warning : 
    From void* Foam::dlLibraryTable::openLibrary(const Foam::fileName&, bool)
    in file db/dynamicLibrary/dlLibraryTable/dlLibraryTable.C at line 188
    Could not load "libpetscFoam.so"
libpetscFoam.so: cannot open shared object file: No such file or directory
Processor 13: field transfer
--> FOAM Warning : 
    From void* Foam::dlLibraryTable::openLibrary(const Foam::fileName&, bool)
    in file db/dynamicLibrary/dlLibraryTable/dlLibraryTable.C at line 188
    Could not load "libpetscFoam.so"
libpetscFoam.so: cannot open shared object file: No such file or directory
Processor 14: field transfer
--> FOAM Warning : 
    From void* Foam::dlLibraryTable::openLibrary(const Foam::fileName&, bool)
    in file db/dynamicLibrary/dlLibraryTable/dlLibraryTable.C at line 188
    Could not load "libpetscFoam.so"
libpetscFoam.so: cannot open shared object file: No such file or directory
Processor 15: field transfer
--> FOAM Warning : 
    From void* Foam::dlLibraryTable::openLibrary(const Foam::fileName&, bool)
    in file db/dynamicLibrary/dlLibraryTable/dlLibraryTable.C at line 188
    Could not load "libpetscFoam.so"
libpetscFoam.so: cannot open shared object file: No such file or directory
Processor 16: field transfer
--> FOAM Warning : 
    From void* Foam::dlLibraryTable::openLibrary(const Foam::fileName&, bool)
    in file db/dynamicLibrary/dlLibraryTable/dlLibraryTable.C at line 188
    Could not load "libpetscFoam.so"
libpetscFoam.so: cannot open shared object file: No such file or directory
Processor 17: field transfer
--> FOAM Warning : 
    From void* Foam::dlLibraryTable::openLibrary(const Foam::fileName&, bool)
    in file db/dynamicLibrary/dlLibraryTable/dlLibraryTable.C at line 188
    Could not load "libpetscFoam.so"
libpetscFoam.so: cannot open shared object file: No such file or directory
Processor 18: field transfer
--> FOAM Warning : 
    From void* Foam::dlLibraryTable::openLibrary(const Foam::fileName&, bool)
    in file db/dynamicLibrary/dlLibraryTable/dlLibraryTable.C at line 188
    Could not load "libpetscFoam.so"
libpetscFoam.so: cannot open shared object file: No such file or directory
Processor 19: field transfer
--> FOAM Warning : 
    From void* Foam::dlLibraryTable::openLibrary(const Foam::fileName&, bool)
    in file db/dynamicLibrary/dlLibraryTable/dlLibraryTable.C at line 188
    Could not load "libpetscFoam.so"
libpetscFoam.so: cannot open shared object file: No such file or directory
Processor 20: field transfer
--> FOAM Warning : 
    From void* Foam::dlLibraryTable::openLibrary(const Foam::fileName&, bool)
    in file db/dynamicLibrary/dlLibraryTable/dlLibraryTable.C at line 188
    Could not load "libpetscFoam.so"
libpetscFoam.so: cannot open shared object file: No such file or directory
Processor 21: field transfer
--> FOAM Warning : 
    From void* Foam::dlLibraryTable::openLibrary(const Foam::fileName&, bool)
    in file db/dynamicLibrary/dlLibraryTable/dlLibraryTable.C at line 188
    Could not load "libpetscFoam.so"
libpetscFoam.so: cannot open shared object file: No such file or directory
Processor 22: field transfer
--> FOAM Warning : 
    From void* Foam::dlLibraryTable::openLibrary(const Foam::fileName&, bool)
    in file db/dynamicLibrary/dlLibraryTable/dlLibraryTable.C at line 188
    Could not load "libpetscFoam.so"
libpetscFoam.so: cannot open shared object file: No such file or directory
Processor 23: field transfer
--> FOAM Warning : 
    From void* Foam::dlLibraryTable::openLibrary(const Foam::fileName&, bool)
    in file db/dynamicLibrary/dlLibraryTable/dlLibraryTable.C at line 188
    Could not load "libpetscFoam.so"
libpetscFoam.so: cannot open shared object file: No such file or directory
Processor 24: field transfer
--> FOAM Warning : 
    From void* Foam::dlLibraryTable::openLibrary(const Foam::fileName&, bool)
    in file db/dynamicLibrary/dlLibraryTable/dlLibraryTable.C at line 188
    Could not load "libpetscFoam.so"
libpetscFoam.so: cannot open shared object file: No such file or directory
Processor 25: field transfer
--> FOAM Warning : 
    From void* Foam::dlLibraryTable::openLibrary(const Foam::fileName&, bool)
    in file db/dynamicLibrary/dlLibraryTable/dlLibraryTable.C at line 188
    Could not load "libpetscFoam.so"
libpetscFoam.so: cannot open shared object file: No such file or directory
Processor 26: field transfer
--> FOAM Warning : 
    From void* Foam::dlLibraryTable::openLibrary(const Foam::fileName&, bool)
    in file db/dynamicLibrary/dlLibraryTable/dlLibraryTable.C at line 188
    Could not load "libpetscFoam.so"
libpetscFoam.so: cannot open shared object file: No such file or directory
Processor 27: field transfer
--> FOAM Warning : 
    From void* Foam::dlLibraryTable::openLibrary(const Foam::fileName&, bool)
    in file db/dynamicLibrary/dlLibraryTable/dlLibraryTable.C at line 188
    Could not load "libpetscFoam.so"
libpetscFoam.so: cannot open shared object file: No such file or directory
Processor 28: field transfer
--> FOAM Warning : 
    From void* Foam::dlLibraryTable::openLibrary(const Foam::fileName&, bool)
    in file db/dynamicLibrary/dlLibraryTable/dlLibraryTable.C at line 188
    Could not load "libpetscFoam.so"
libpetscFoam.so: cannot open shared object file: No such file or directory
Processor 29: field transfer
--> FOAM Warning : 
    From void* Foam::dlLibraryTable::openLibrary(const Foam::fileName&, bool)
    in file db/dynamicLibrary/dlLibraryTable/dlLibraryTable.C at line 188
    Could not load "libpetscFoam.so"
libpetscFoam.so: cannot open shared object file: No such file or directory
Processor 30: field transfer
--> FOAM Warning : 
    From void* Foam::dlLibraryTable::openLibrary(const Foam::fileName&, bool)
    in file db/dynamicLibrary/dlLibraryTable/dlLibraryTable.C at line 188
    Could not load "libpetscFoam.so"
libpetscFoam.so: cannot open shared object file: No such file or directory
Processor 31: field transfer
--> FOAM Warning : 
    From void* Foam::dlLibraryTable::openLibrary(const Foam::fileName&, bool)
    in file db/dynamicLibrary/dlLibraryTable/dlLibraryTable.C at line 188
    Could not load "libpetscFoam.so"
libpetscFoam.so: cannot open shared object file: No such file or directory
Processor 32: field transfer
--> FOAM Warning : 
    From void* Foam::dlLibraryTable::openLibrary(const Foam::fileName&, bool)
    in file db/dynamicLibrary/dlLibraryTable/dlLibraryTable.C at line 188
    Could not load "libpetscFoam.so"
libpetscFoam.so: cannot open shared object file: No such file or directory
Processor 33: field transfer
--> FOAM Warning : 
    From void* Foam::dlLibraryTable::openLibrary(const Foam::fileName&, bool)
    in file db/dynamicLibrary/dlLibraryTable/dlLibraryTable.C at line 188
    Could not load "libpetscFoam.so"
libpetscFoam.so: cannot open shared object file: No such file or directory
Processor 34: field transfer
--> FOAM Warning : 
    From void* Foam::dlLibraryTable::openLibrary(const Foam::fileName&, bool)
    in file db/dynamicLibrary/dlLibraryTable/dlLibraryTable.C at line 188
    Could not load "libpetscFoam.so"
libpetscFoam.so: cannot open shared object file: No such file or directory
Processor 35: field transfer
--> FOAM Warning : 
    From void* Foam::dlLibraryTable::openLibrary(const Foam::fileName&, bool)
    in file db/dynamicLibrary/dlLibraryTable/dlLibraryTable.C at line 188
    Could not load "libpetscFoam.so"
libpetscFoam.so: cannot open shared object file: No such file or directory
Processor 36: field transfer
--> FOAM Warning : 
    From void* Foam::dlLibraryTable::openLibrary(const Foam::fileName&, bool)
    in file db/dynamicLibrary/dlLibraryTable/dlLibraryTable.C at line 188
    Could not load "libpetscFoam.so"
libpetscFoam.so: cannot open shared object file: No such file or directory
Processor 37: field transfer
--> FOAM Warning : 
    From void* Foam::dlLibraryTable::openLibrary(const Foam::fileName&, bool)
    in file db/dynamicLibrary/dlLibraryTable/dlLibraryTable.C at line 188
    Could not load "libpetscFoam.so"
libpetscFoam.so: cannot open shared object file: No such file or directory
Processor 38: field transfer
--> FOAM Warning : 
    From void* Foam::dlLibraryTable::openLibrary(const Foam::fileName&, bool)
    in file db/dynamicLibrary/dlLibraryTable/dlLibraryTable.C at line 188
    Could not load "libpetscFoam.so"
libpetscFoam.so: cannot open shared object file: No such file or directory
Processor 39: field transfer
--> FOAM Warning : 
    From void* Foam::dlLibraryTable::openLibrary(const Foam::fileName&, bool)
    in file db/dynamicLibrary/dlLibraryTable/dlLibraryTable.C at line 188
    Could not load "libpetscFoam.so"
libpetscFoam.so: cannot open shared object file: No such file or directory
Processor 40: field transfer
--> FOAM Warning : 
    From void* Foam::dlLibraryTable::openLibrary(const Foam::fileName&, bool)
    in file db/dynamicLibrary/dlLibraryTable/dlLibraryTable.C at line 188
    Could not load "libpetscFoam.so"
libpetscFoam.so: cannot open shared object file: No such file or directory
Processor 41: field transfer
--> FOAM Warning : 
    From void* Foam::dlLibraryTable::openLibrary(const Foam::fileName&, bool)
    in file db/dynamicLibrary/dlLibraryTable/dlLibraryTable.C at line 188
    Could not load "libpetscFoam.so"
libpetscFoam.so: cannot open shared object file: No such file or directory
Processor 42: field transfer
--> FOAM Warning : 
    From void* Foam::dlLibraryTable::openLibrary(const Foam::fileName&, bool)
    in file db/dynamicLibrary/dlLibraryTable/dlLibraryTable.C at line 188
    Could not load "libpetscFoam.so"
libpetscFoam.so: cannot open shared object file: No such file or directory
Processor 43: field transfer
--> FOAM Warning : 
    From void* Foam::dlLibraryTable::openLibrary(const Foam::fileName&, bool)
    in file db/dynamicLibrary/dlLibraryTable/dlLibraryTable.C at line 188
    Could not load "libpetscFoam.so"
libpetscFoam.so: cannot open shared object file: No such file or directory
Processor 44: field transfer
--> FOAM Warning : 
    From void* Foam::dlLibraryTable::openLibrary(const Foam::fileName&, bool)
    in file db/dynamicLibrary/dlLibraryTable/dlLibraryTable.C at line 188
    Could not load "libpetscFoam.so"
libpetscFoam.so: cannot open shared object file: No such file or directory
Processor 45: field transfer
--> FOAM Warning : 
    From void* Foam::dlLibraryTable::openLibrary(const Foam::fileName&, bool)
    in file db/dynamicLibrary/dlLibraryTable/dlLibraryTable.C at line 188
    Could not load "libpetscFoam.so"
libpetscFoam.so: cannot open shared object file: No such file or directory
Processor 46: field transfer
--> FOAM Warning : 
    From void* Foam::dlLibraryTable::openLibrary(const Foam::fileName&, bool)
    in file db/dynamicLibrary/dlLibraryTable/dlLibraryTable.C at line 188
    Could not load "libpetscFoam.so"
libpetscFoam.so: cannot open shared object file: No such file or directory
Processor 47: field transfer
--> FOAM Warning : 
    From void* Foam::dlLibraryTable::openLibrary(const Foam::fileName&, bool)
    in file db/dynamicLibrary/dlLibraryTable/dlLibraryTable.C at line 188
    Could not load "libpetscFoam.so"
libpetscFoam.so: cannot open shared object file: No such file or directory
Processor 48: field transfer
--> FOAM Warning : 
    From void* Foam::dlLibraryTable::openLibrary(const Foam::fileName&, bool)
    in file db/dynamicLibrary/dlLibraryTable/dlLibraryTable.C at line 188
    Could not load "libpetscFoam.so"
libpetscFoam.so: cannot open shared object file: No such file or directory
Processor 49: field transfer
--> FOAM Warning : 
    From void* Foam::dlLibraryTable::openLibrary(const Foam::fileName&, bool)
    in file db/dynamicLibrary/dlLibraryTable/dlLibraryTable.C at line 188
    Could not load "libpetscFoam.so"
libpetscFoam.so: cannot open shared object file: No such file or directory
Processor 50: field transfer
--> FOAM Warning : 
    From void* Foam::dlLibraryTable::openLibrary(const Foam::fileName&, bool)
    in file db/dynamicLibrary/dlLibraryTable/dlLibraryTable.C at line 188
    Could not load "libpetscFoam.so"
libpetscFoam.so: cannot open shared object file: No such file or directory
Processor 51: field transfer
--> FOAM Warning : 
    From void* Foam::dlLibraryTable::openLibrary(const Foam::fileName&, bool)
    in file db/dynamicLibrary/dlLibraryTable/dlLibraryTable.C at line 188
    Could not load "libpetscFoam.so"
libpetscFoam.so: cannot open shared object file: No such file or directory
Processor 52: field transfer
--> FOAM Warning : 
    From void* Foam::dlLibraryTable::openLibrary(const Foam::fileName&, bool)
    in file db/dynamicLibrary/dlLibraryTable/dlLibraryTable.C at line 188
    Could not load "libpetscFoam.so"
libpetscFoam.so: cannot open shared object file: No such file or directory
Processor 53: field transfer
--> FOAM Warning : 
    From void* Foam::dlLibraryTable::openLibrary(const Foam::fileName&, bool)
    in file db/dynamicLibrary/dlLibraryTable/dlLibraryTable.C at line 188
    Could not load "libpetscFoam.so"
libpetscFoam.so: cannot open shared object file: No such file or directory
Processor 54: field transfer
--> FOAM Warning : 
    From void* Foam::dlLibraryTable::openLibrary(const Foam::fileName&, bool)
    in file db/dynamicLibrary/dlLibraryTable/dlLibraryTable.C at line 188
    Could not load "libpetscFoam.so"
libpetscFoam.so: cannot open shared object file: No such file or directory
Processor 55: field transfer
--> FOAM Warning : 
    From void* Foam::dlLibraryTable::openLibrary(const Foam::fileName&, bool)
    in file db/dynamicLibrary/dlLibraryTable/dlLibraryTable.C at line 188
    Could not load "libpetscFoam.so"
libpetscFoam.so: cannot open shared object file: No such file or directory
Processor 56: field transfer
--> FOAM Warning : 
    From void* Foam::dlLibraryTable::openLibrary(const Foam::fileName&, bool)
    in file db/dynamicLibrary/dlLibraryTable/dlLibraryTable.C at line 188
    Could not load "libpetscFoam.so"
libpetscFoam.so: cannot open shared object file: No such file or directory
Processor 57: field transfer
--> FOAM Warning : 
    From void* Foam::dlLibraryTable::openLibrary(const Foam::fileName&, bool)
    in file db/dynamicLibrary/dlLibraryTable/dlLibraryTable.C at line 188
    Could not load "libpetscFoam.so"
libpetscFoam.so: cannot open shared object file: No such file or directory
Processor 58: field transfer
--> FOAM Warning : 
    From void* Foam::dlLibraryTable::openLibrary(const Foam::fileName&, bool)
    in file db/dynamicLibrary/dlLibraryTable/dlLibraryTable.C at line 188
    Could not load "libpetscFoam.so"
libpetscFoam.so: cannot open shared object file: No such file or directory
Processor 59: field transfer
--> FOAM Warning : 
    From void* Foam::dlLibraryTable::openLibrary(const Foam::fileName&, bool)
    in file db/dynamicLibrary/dlLibraryTable/dlLibraryTable.C at line 188
    Could not load "libpetscFoam.so"
libpetscFoam.so: cannot open shared object file: No such file or directory
Processor 60: field transfer
--> FOAM Warning : 
    From void* Foam::dlLibraryTable::openLibrary(const Foam::fileName&, bool)
    in file db/dynamicLibrary/dlLibraryTable/dlLibraryTable.C at line 188
    Could not load "libpetscFoam.so"
libpetscFoam.so: cannot open shared object file: No such file or directory
Processor 61: field transfer
--> FOAM Warning : 
    From void* Foam::dlLibraryTable::openLibrary(const Foam::fileName&, bool)
    in file db/dynamicLibrary/dlLibraryTable/dlLibraryTable.C at line 188
    Could not load "libpetscFoam.so"
libpetscFoam.so: cannot open shared object file: No such file or directory
Processor 62: field transfer
--> FOAM Warning : 
    From void* Foam::dlLibraryTable::openLibrary(const Foam::fileName&, bool)
    in file db/dynamicLibrary/dlLibraryTable/dlLibraryTable.C at line 188
    Could not load "libpetscFoam.so"
libpetscFoam.so: cannot open shared object file: No such file or directory
Processor 63: field transfer
--> FOAM Warning : 
    From void* Foam::dlLibraryTable::openLibrary(const Foam::fileName&, bool)
    in file db/dynamicLibrary/dlLibraryTable/dlLibraryTable.C at line 188
    Could not load "libpetscFoam.so"
libpetscFoam.so: cannot open shared object file: No such file or directory
Processor 64: field transfer
--> FOAM Warning : 
    From void* Foam::dlLibraryTable::openLibrary(const Foam::fileName&, bool)
    in file db/dynamicLibrary/dlLibraryTable/dlLibraryTable.C at line 188
    Could not load "libpetscFoam.so"
libpetscFoam.so: cannot open shared object file: No such file or directory
Processor 65: field transfer
--> FOAM Warning : 
    From void* Foam::dlLibraryTable::openLibrary(const Foam::fileName&, bool)
    in file db/dynamicLibrary/dlLibraryTable/dlLibraryTable.C at line 188
    Could not load "libpetscFoam.so"
libpetscFoam.so: cannot open shared object file: No such file or directory
Processor 66: field transfer
--> FOAM Warning : 
    From void* Foam::dlLibraryTable::openLibrary(const Foam::fileName&, bool)
    in file db/dynamicLibrary/dlLibraryTable/dlLibraryTable.C at line 188
    Could not load "libpetscFoam.so"
libpetscFoam.so: cannot open shared object file: No such file or directory
Processor 67: field transfer
--> FOAM Warning : 
    From void* Foam::dlLibraryTable::openLibrary(const Foam::fileName&, bool)
    in file db/dynamicLibrary/dlLibraryTable/dlLibraryTable.C at line 188
    Could not load "libpetscFoam.so"
libpetscFoam.so: cannot open shared object file: No such file or directory
Processor 68: field transfer
--> FOAM Warning : 
    From void* Foam::dlLibraryTable::openLibrary(const Foam::fileName&, bool)
    in file db/dynamicLibrary/dlLibraryTable/dlLibraryTable.C at line 188
    Could not load "libpetscFoam.so"
libpetscFoam.so: cannot open shared object file: No such file or directory
Processor 69: field transfer
--> FOAM Warning : 
    From void* Foam::dlLibraryTable::openLibrary(const Foam::fileName&, bool)
    in file db/dynamicLibrary/dlLibraryTable/dlLibraryTable.C at line 188
    Could not load "libpetscFoam.so"
libpetscFoam.so: cannot open shared object file: No such file or directory
Processor 70: field transfer
--> FOAM Warning : 
    From void* Foam::dlLibraryTable::openLibrary(const Foam::fileName&, bool)
    in file db/dynamicLibrary/dlLibraryTable/dlLibraryTable.C at line 188
    Could not load "libpetscFoam.so"
libpetscFoam.so: cannot open shared object file: No such file or directory
Processor 71: field transfer
--> FOAM Warning : 
    From void* Foam::dlLibraryTable::openLibrary(const Foam::fileName&, bool)
    in file db/dynamicLibrary/dlLibraryTable/dlLibraryTable.C at line 188
    Could not load "libpetscFoam.so"
libpetscFoam.so: cannot open shared object file: No such file or directory
Processor 72: field transfer
--> FOAM Warning : 
    From void* Foam::dlLibraryTable::openLibrary(const Foam::fileName&, bool)
    in file db/dynamicLibrary/dlLibraryTable/dlLibraryTable.C at line 188
    Could not load "libpetscFoam.so"
libpetscFoam.so: cannot open shared object file: No such file or directory
Processor 73: field transfer
--> FOAM Warning : 
    From void* Foam::dlLibraryTable::openLibrary(const Foam::fileName&, bool)
    in file db/dynamicLibrary/dlLibraryTable/dlLibraryTable.C at line 188
    Could not load "libpetscFoam.so"
libpetscFoam.so: cannot open shared object file: No such file or directory
Processor 74: field transfer
--> FOAM Warning : 
    From void* Foam::dlLibraryTable::openLibrary(const Foam::fileName&, bool)
    in file db/dynamicLibrary/dlLibraryTable/dlLibraryTable.C at line 188
    Could not load "libpetscFoam.so"
libpetscFoam.so: cannot open shared object file: No such file or directory
Processor 75: field transfer
--> FOAM Warning : 
    From void* Foam::dlLibraryTable::openLibrary(const Foam::fileName&, bool)
    in file db/dynamicLibrary/dlLibraryTable/dlLibraryTable.C at line 188
    Could not load "libpetscFoam.so"
libpetscFoam.so: cannot open shared object file: No such file or directory
Processor 76: field transfer
--> FOAM Warning : 
    From void* Foam::dlLibraryTable::openLibrary(const Foam::fileName&, bool)
    in file db/dynamicLibrary/dlLibraryTable/dlLibraryTable.C at line 188
    Could not load "libpetscFoam.so"
libpetscFoam.so: cannot open shared object file: No such file or directory
Processor 77: field transfer
--> FOAM Warning : 
    From void* Foam::dlLibraryTable::openLibrary(const Foam::fileName&, bool)
    in file db/dynamicLibrary/dlLibraryTable/dlLibraryTable.C at line 188
    Could not load "libpetscFoam.so"
libpetscFoam.so: cannot open shared object file: No such file or directory
Processor 78: field transfer
--> FOAM Warning : 
    From void* Foam::dlLibraryTable::openLibrary(const Foam::fileName&, bool)
    in file db/dynamicLibrary/dlLibraryTable/dlLibraryTable.C at line 188
    Could not load "libpetscFoam.so"
libpetscFoam.so: cannot open shared object file: No such file or directory
Processor 79: field transfer
--> FOAM Warning : 
    From void* Foam::dlLibraryTable::openLibrary(const Foam::fileName&, bool)
    in file db/dynamicLibrary/dlLibraryTable/dlLibraryTable.C at line 188
    Could not load "libpetscFoam.so"
libpetscFoam.so: cannot open shared object file: No such file or directory
Processor 80: field transfer
--> FOAM Warning : 
    From void* Foam::dlLibraryTable::openLibrary(const Foam::fileName&, bool)
    in file db/dynamicLibrary/dlLibraryTable/dlLibraryTable.C at line 188
    Could not load "libpetscFoam.so"
libpetscFoam.so: cannot open shared object file: No such file or directory
Processor 81: field transfer
--> FOAM Warning : 
    From void* Foam::dlLibraryTable::openLibrary(const Foam::fileName&, bool)
    in file db/dynamicLibrary/dlLibraryTable/dlLibraryTable.C at line 188
    Could not load "libpetscFoam.so"
libpetscFoam.so: cannot open shared object file: No such file or directory
Processor 82: field transfer
--> FOAM Warning : 
    From void* Foam::dlLibraryTable::openLibrary(const Foam::fileName&, bool)
    in file db/dynamicLibrary/dlLibraryTable/dlLibraryTable.C at line 188
    Could not load "libpetscFoam.so"
libpetscFoam.so: cannot open shared object file: No such file or directory
Processor 83: field transfer
--> FOAM Warning : 
    From void* Foam::dlLibraryTable::openLibrary(const Foam::fileName&, bool)
    in file db/dynamicLibrary/dlLibraryTable/dlLibraryTable.C at line 188
    Could not load "libpetscFoam.so"
libpetscFoam.so: cannot open shared object file: No such file or directory
Processor 84: field transfer
--> FOAM Warning : 
    From void* Foam::dlLibraryTable::openLibrary(const Foam::fileName&, bool)
    in file db/dynamicLibrary/dlLibraryTable/dlLibraryTable.C at line 188
    Could not load "libpetscFoam.so"
libpetscFoam.so: cannot open shared object file: No such file or directory
Processor 85: field transfer
--> FOAM Warning : 
    From void* Foam::dlLibraryTable::openLibrary(const Foam::fileName&, bool)
    in file db/dynamicLibrary/dlLibraryTable/dlLibraryTable.C at line 188
    Could not load "libpetscFoam.so"
libpetscFoam.so: cannot open shared object file: No such file or directory
Processor 86: field transfer
--> FOAM Warning : 
    From void* Foam::dlLibraryTable::openLibrary(const Foam::fileName&, bool)
    in file db/dynamicLibrary/dlLibraryTable/dlLibraryTable.C at line 188
    Could not load "libpetscFoam.so"
libpetscFoam.so: cannot open shared object file: No such file or directory
Processor 87: field transfer
--> FOAM Warning : 
    From void* Foam::dlLibraryTable::openLibrary(const Foam::fileName&, bool)
    in file db/dynamicLibrary/dlLibraryTable/dlLibraryTable.C at line 188
    Could not load "libpetscFoam.so"
libpetscFoam.so: cannot open shared object file: No such file or directory
Processor 88: field transfer
--> FOAM Warning : 
    From void* Foam::dlLibraryTable::openLibrary(const Foam::fileName&, bool)
    in file db/dynamicLibrary/dlLibraryTable/dlLibraryTable.C at line 188
    Could not load "libpetscFoam.so"
libpetscFoam.so: cannot open shared object file: No such file or directory
Processor 89: field transfer
--> FOAM Warning : 
    From void* Foam::dlLibraryTable::openLibrary(const Foam::fileName&, bool)
    in file db/dynamicLibrary/dlLibraryTable/dlLibraryTable.C at line 188
    Could not load "libpetscFoam.so"
libpetscFoam.so: cannot open shared object file: No such file or directory
Processor 90: field transfer
--> FOAM Warning : 
    From void* Foam::dlLibraryTable::openLibrary(const Foam::fileName&, bool)
    in file db/dynamicLibrary/dlLibraryTable/dlLibraryTable.C at line 188
    Could not load "libpetscFoam.so"
libpetscFoam.so: cannot open shared object file: No such file or directory
Processor 91: field transfer
--> FOAM Warning : 
    From void* Foam::dlLibraryTable::openLibrary(const Foam::fileName&, bool)
    in file db/dynamicLibrary/dlLibraryTable/dlLibraryTable.C at line 188
    Could not load "libpetscFoam.so"
libpetscFoam.so: cannot open shared object file: No such file or directory
Processor 92: field transfer
--> FOAM Warning : 
    From void* Foam::dlLibraryTable::openLibrary(const Foam::fileName&, bool)
    in file db/dynamicLibrary/dlLibraryTable/dlLibraryTable.C at line 188
    Could not load "libpetscFoam.so"
libpetscFoam.so: cannot open shared object file: No such file or directory
Processor 93: field transfer
--> FOAM Warning : 
    From void* Foam::dlLibraryTable::openLibrary(const Foam::fileName&, bool)
    in file db/dynamicLibrary/dlLibraryTable/dlLibraryTable.C at line 188
    Could not load "libpetscFoam.so"
libpetscFoam.so: cannot open shared object file: No such file or directory
Processor 94: field transfer
--> FOAM Warning : 
    From void* Foam::dlLibraryTable::openLibrary(const Foam::fileName&, bool)
    in file db/dynamicLibrary/dlLibraryTable/dlLibraryTable.C at line 188
    Could not load "libpetscFoam.so"
libpetscFoam.so: cannot open shared object file: No such file or directory
Processor 95: field transfer
--> FOAM Warning : 
    From void* Foam::dlLibraryTable::openLibrary(const Foam::fileName&, bool)
    in file db/dynamicLibrary/dlLibraryTable/dlLibraryTable.C at line 188
    Could not load "libpetscFoam.so"
libpetscFoam.so: cannot open shared object file: No such file or directory
Processor 96: field transfer
--> FOAM Warning : 
    From void* Foam::dlLibraryTable::openLibrary(const Foam::fileName&, bool)
    in file db/dynamicLibrary/dlLibraryTable/dlLibraryTable.C at line 188
    Could not load "libpetscFoam.so"
libpetscFoam.so: cannot open shared object file: No such file or directory
Processor 97: field transfer
--> FOAM Warning : 
    From void* Foam::dlLibraryTable::openLibrary(const Foam::fileName&, bool)
    in file db/dynamicLibrary/dlLibraryTable/dlLibraryTable.C at line 188
    Could not load "libpetscFoam.so"
libpetscFoam.so: cannot open shared object file: No such file or directory
Processor 98: field transfer
--> FOAM Warning : 
    From void* Foam::dlLibraryTable::openLibrary(const Foam::fileName&, bool)
    in file db/dynamicLibrary/dlLibraryTable/dlLibraryTable.C at line 188
    Could not load "libpetscFoam.so"
libpetscFoam.so: cannot open shared object file: No such file or directory
Processor 99: field transfer
--> FOAM Warning : 
    From void* Foam::dlLibraryTable::openLibrary(const Foam::fileName&, bool)
    in file db/dynamicLibrary/dlLibraryTable/dlLibraryTable.C at line 188
    Could not load "libpetscFoam.so"
libpetscFoam.so: cannot open shared object file: No such file or directory
Processor 100: field transfer
--> FOAM Warning : 
    From void* Foam::dlLibraryTable::openLibrary(const Foam::fileName&, bool)
    in file db/dynamicLibrary/dlLibraryTable/dlLibraryTable.C at line 188
    Could not load "libpetscFoam.so"
libpetscFoam.so: cannot open shared object file: No such file or directory
Processor 101: field transfer
--> FOAM Warning : 
    From void* Foam::dlLibraryTable::openLibrary(const Foam::fileName&, bool)
    in file db/dynamicLibrary/dlLibraryTable/dlLibraryTable.C at line 188
    Could not load "libpetscFoam.so"
libpetscFoam.so: cannot open shared object file: No such file or directory
Processor 102: field transfer
--> FOAM Warning : 
    From void* Foam::dlLibraryTable::openLibrary(const Foam::fileName&, bool)
    in file db/dynamicLibrary/dlLibraryTable/dlLibraryTable.C at line 188
    Could not load "libpetscFoam.so"
libpetscFoam.so: cannot open shared object file: No such file or directory
Processor 103: field transfer
--> FOAM Warning : 
    From void* Foam::dlLibraryTable::openLibrary(const Foam::fileName&, bool)
    in file db/dynamicLibrary/dlLibraryTable/dlLibraryTable.C at line 188
    Could not load "libpetscFoam.so"
libpetscFoam.so: cannot open shared object file: No such file or directory
Processor 104: field transfer
--> FOAM Warning : 
    From void* Foam::dlLibraryTable::openLibrary(const Foam::fileName&, bool)
    in file db/dynamicLibrary/dlLibraryTable/dlLibraryTable.C at line 188
    Could not load "libpetscFoam.so"
libpetscFoam.so: cannot open shared object file: No such file or directory
Processor 105: field transfer
--> FOAM Warning : 
    From void* Foam::dlLibraryTable::openLibrary(const Foam::fileName&, bool)
    in file db/dynamicLibrary/dlLibraryTable/dlLibraryTable.C at line 188
    Could not load "libpetscFoam.so"
libpetscFoam.so: cannot open shared object file: No such file or directory
Processor 106: field transfer
--> FOAM Warning : 
    From void* Foam::dlLibraryTable::openLibrary(const Foam::fileName&, bool)
    in file db/dynamicLibrary/dlLibraryTable/dlLibraryTable.C at line 188
    Could not load "libpetscFoam.so"
libpetscFoam.so: cannot open shared object file: No such file or directory
Processor 107: field transfer
--> FOAM Warning : 
    From void* Foam::dlLibraryTable::openLibrary(const Foam::fileName&, bool)
    in file db/dynamicLibrary/dlLibraryTable/dlLibraryTable.C at line 188
    Could not load "libpetscFoam.so"
libpetscFoam.so: cannot open shared object file: No such file or directory
Processor 108: field transfer
--> FOAM Warning : 
    From void* Foam::dlLibraryTable::openLibrary(const Foam::fileName&, bool)
    in file db/dynamicLibrary/dlLibraryTable/dlLibraryTable.C at line 188
    Could not load "libpetscFoam.so"
libpetscFoam.so: cannot open shared object file: No such file or directory
Processor 109: field transfer
--> FOAM Warning : 
    From void* Foam::dlLibraryTable::openLibrary(const Foam::fileName&, bool)
    in file db/dynamicLibrary/dlLibraryTable/dlLibraryTable.C at line 188
    Could not load "libpetscFoam.so"
libpetscFoam.so: cannot open shared object file: No such file or directory
Processor 110: field transfer
--> FOAM Warning : 
    From void* Foam::dlLibraryTable::openLibrary(const Foam::fileName&, bool)
    in file db/dynamicLibrary/dlLibraryTable/dlLibraryTable.C at line 188
    Could not load "libpetscFoam.so"
libpetscFoam.so: cannot open shared object file: No such file or directory
Processor 111: field transfer
--> FOAM Warning : 
    From void* Foam::dlLibraryTable::openLibrary(const Foam::fileName&, bool)
    in file db/dynamicLibrary/dlLibraryTable/dlLibraryTable.C at line 188
    Could not load "libpetscFoam.so"
libpetscFoam.so: cannot open shared object file: No such file or directory
Processor 112: field transfer
--> FOAM Warning : 
    From void* Foam::dlLibraryTable::openLibrary(const Foam::fileName&, bool)
    in file db/dynamicLibrary/dlLibraryTable/dlLibraryTable.C at line 188
    Could not load "libpetscFoam.so"
libpetscFoam.so: cannot open shared object file: No such file or directory
Processor 113: field transfer
--> FOAM Warning : 
    From void* Foam::dlLibraryTable::openLibrary(const Foam::fileName&, bool)
    in file db/dynamicLibrary/dlLibraryTable/dlLibraryTable.C at line 188
    Could not load "libpetscFoam.so"
libpetscFoam.so: cannot open shared object file: No such file or directory
Processor 114: field transfer
--> FOAM Warning : 
    From void* Foam::dlLibraryTable::openLibrary(const Foam::fileName&, bool)
    in file db/dynamicLibrary/dlLibraryTable/dlLibraryTable.C at line 188
    Could not load "libpetscFoam.so"
libpetscFoam.so: cannot open shared object file: No such file or directory
Processor 115: field transfer
--> FOAM Warning : 
    From void* Foam::dlLibraryTable::openLibrary(const Foam::fileName&, bool)
    in file db/dynamicLibrary/dlLibraryTable/dlLibraryTable.C at line 188
    Could not load "libpetscFoam.so"
libpetscFoam.so: cannot open shared object file: No such file or directory
Processor 116: field transfer
--> FOAM Warning : 
    From void* Foam::dlLibraryTable::openLibrary(const Foam::fileName&, bool)
    in file db/dynamicLibrary/dlLibraryTable/dlLibraryTable.C at line 188
    Could not load "libpetscFoam.so"
libpetscFoam.so: cannot open shared object file: No such file or directory
Processor 117: field transfer
--> FOAM Warning : 
    From void* Foam::dlLibraryTable::openLibrary(const Foam::fileName&, bool)
    in file db/dynamicLibrary/dlLibraryTable/dlLibraryTable.C at line 188
    Could not load "libpetscFoam.so"
libpetscFoam.so: cannot open shared object file: No such file or directory
Processor 118: field transfer
--> FOAM Warning : 
    From void* Foam::dlLibraryTable::openLibrary(const Foam::fileName&, bool)
    in file db/dynamicLibrary/dlLibraryTable/dlLibraryTable.C at line 188
    Could not load "libpetscFoam.so"
libpetscFoam.so: cannot open shared object file: No such file or directory
Processor 119: field transfer
--> FOAM Warning : 
    From void* Foam::dlLibraryTable::openLibrary(const Foam::fileName&, bool)
    in file db/dynamicLibrary/dlLibraryTable/dlLibraryTable.C at line 188
    Could not load "libpetscFoam.so"
libpetscFoam.so: cannot open shared object file: No such file or directory
Processor 120: field transfer
--> FOAM Warning : 
    From void* Foam::dlLibraryTable::openLibrary(const Foam::fileName&, bool)
    in file db/dynamicLibrary/dlLibraryTable/dlLibraryTable.C at line 188
    Could not load "libpetscFoam.so"
libpetscFoam.so: cannot open shared object file: No such file or directory
Processor 121: field transfer
--> FOAM Warning : 
    From void* Foam::dlLibraryTable::openLibrary(const Foam::fileName&, bool)
    in file db/dynamicLibrary/dlLibraryTable/dlLibraryTable.C at line 188
    Could not load "libpetscFoam.so"
libpetscFoam.so: cannot open shared object file: No such file or directory
Processor 122: field transfer
--> FOAM Warning : 
    From void* Foam::dlLibraryTable::openLibrary(const Foam::fileName&, bool)
    in file db/dynamicLibrary/dlLibraryTable/dlLibraryTable.C at line 188
    Could not load "libpetscFoam.so"
libpetscFoam.so: cannot open shared object file: No such file or directory
Processor 123: field transfer
--> FOAM Warning : 
    From void* Foam::dlLibraryTable::openLibrary(const Foam::fileName&, bool)
    in file db/dynamicLibrary/dlLibraryTable/dlLibraryTable.C at line 188
    Could not load "libpetscFoam.so"
libpetscFoam.so: cannot open shared object file: No such file or directory
Processor 124: field transfer
--> FOAM Warning : 
    From void* Foam::dlLibraryTable::openLibrary(const Foam::fileName&, bool)
    in file db/dynamicLibrary/dlLibraryTable/dlLibraryTable.C at line 188
    Could not load "libpetscFoam.so"
libpetscFoam.so: cannot open shared object file: No such file or directory
Processor 125: field transfer
--> FOAM Warning : 
    From void* Foam::dlLibraryTable::openLibrary(const Foam::fileName&, bool)
    in file db/dynamicLibrary/dlLibraryTable/dlLibraryTable.C at line 188
    Could not load "libpetscFoam.so"
libpetscFoam.so: cannot open shared object file: No such file or directory
Processor 126: field transfer
--> FOAM Warning : 
    From void* Foam::dlLibraryTable::openLibrary(const Foam::fileName&, bool)
    in file db/dynamicLibrary/dlLibraryTable/dlLibraryTable.C at line 188
    Could not load "libpetscFoam.so"
libpetscFoam.so: cannot open shared object file: No such file or directory
Processor 127: field transfer
--> FOAM Warning : 
    From void* Foam::dlLibraryTable::openLibrary(const Foam::fileName&, bool)
    in file db/dynamicLibrary/dlLibraryTable/dlLibraryTable.C at line 188
    Could not load "libpetscFoam.so"
libpetscFoam.so: cannot open shared object file: No such file or directory

End

