/*---------------------------------------------------------------------------*\
| =========                 |                                                 |
| \\      /  F ield         | OpenFOAM: The Open Source CFD Toolbox           |
|  \\    /   O peration     | Version:  2306                                  |
|   \\  /    A nd           | Website:  www.openfoam.com                      |
|    \\/     M anipulation  |                                                 |
\*---------------------------------------------------------------------------*/
Build  : a6e826bd55-20230630 OPENFOAM=2306 version=v2306
Arch   : "LSB;label=32;scalar=64"
Exec   : icoFoam -parallel -case /tmp/lidDrivenCavity3D/workspace/169372a9207b27a384a8b0173cdbb82c/case
Date   : Dec 09 2023
Time   : 09:42:48
Host   : nla-gpu2.ianm.kit.edu
PID    : 270213
I/O    : uncollated
Case   : /tmp/lidDrivenCavity3D/workspace/169372a9207b27a384a8b0173cdbb82c/case
nProcs : 8
Hosts  :
(
    (nla-gpu2.ianm.kit.edu 8)
)
Pstream initialized with:
    floatTransfer      : false
    nProcsSimpleSum    : 0
    nonBlockingExchange: 0 (tuning: 0)
    exchange algorithm : -1
    commsType          : nonBlocking
    polling iterations : 0
trapFpe: Floating point exception trapping enabled (FOAM_SIGFPE).
fileModificationChecking : Monitoring run-time modified files using timeStampMaster (fileModificationSkew 5, maxFileModificationPolls 20)
allowSystemOperations : Allowing user-supplied system call operations

// * * * * * * * * * * * * * * * * * * * * * * * * * * * * * * * * * * * * * //
Create time

--> FOAM Warning : 
    From void* Foam::dlLibraryTable::openLibrary(const Foam::fileName&, bool)
    in file db/dynamicLibrary/dlLibraryTable/dlLibraryTable.C at line 188
    Could not load "libpetscFoam.so"
libpetscFoam.so: cannot open shared object file: No such file or directory
Create mesh for time = 0


PISO: Operating solver in PISO mode

Reading transportProperties

Reading field p

Reading field U

Reading/calculating face flux field phi


Starting time loop

Time = 0.00025

Courant Number mean: 8.24341e-18 max: 2.08167e-14
[INFO] MatrixAssemblyU: 107.333 [ms]
DILUPBiCGStab:  Solving for Ux, Initial residual = 1, Final residual = 0.00959752, No Iterations 5
DILUPBiCGStab:  Solving for Uy:  solution singularity
DILUPBiCGStab:  Solving for Uz:  solution singularity
[INFO] MomentumPredictor: 485.781 [ms]
[INFO] MatrixAssemblyPI: 104.578 [ms]
[INFO] AdjustPhi: 9.857 [ms]
[INFO] ConstrainPressure: 0.013 [ms]
[INFO] MatrixAssemblyPII: 30.258 [ms]
[OGL LOG][lduLduBase.H:119] Initialising OGL
	OGL commit:  5ef1233
	Branch: feat/on_device_permute 
	Build type: Release
	Ginkgo version: 1.7.0 ( develop)
	Ginkgo commit: sparse-communicator
	MPI is GPU aware: 1
	Forces host buffer based communication: 0
	CPU ranks per GPU: 1
	Matrix format: Coo
	End OGL_INFO
[OGL LOG][Proc: 0]: global_index_init: 0.983 [ms]
[OGL LOG][Proc: 0]p_local_cols: call_init: 0.032 [ms]
[OGL LOG][Proc: 0]p_local_rows: call_init: 0.003 [ms]
[OGL LOG][Proc: 0]p_local_ldu_map: call_init: 0.009 [ms]
[OGL LOG][Proc: 0]p_local_coeffs: call_init: 0.01 [ms]
[OGL LOG][Proc: 0]p_non_local_cols: call_init: 0.004 [ms]
[OGL LOG][Proc: 0]p_non_local_rows: call_init: 0.002 [ms]
[OGL LOG][Proc: 0]p_non_local_ldu_map: call_init: 0.002 [ms]
[OGL LOG][Proc: 0]p_non_local_coeffs: call_init: 0.002 [ms]
[OGL LOG][Proc: 0]p: init_local_sparsity_pattern: 154.146 [ms]
[OGL LOG][Proc: 0]p: init_non_local_sparsity_pattern: 5.923 [ms]
[OGL LOG][Proc: 0]p: update_local_matrix_data: 14.668 [ms]
[OGL LOG][Proc: 0]p: update_non_local_matrix_data: 0.152 [ms]
[OGL LOG][Proc: 0]device_partition: call_init: 0.153 [ms]
[OGL LOG][Proc: 0]p_matrix: call_init: 77.562 [ms]
[OGL LOG][Proc: 0]p_rhs: call_init: 5.144 [ms]
[OGL LOG][Proc: 0]p_solution: call_init: 1.125 [ms]
[OGL LOG][Preconditioner.H:121] Generate preconditioner BJ MaxBlockSize 1
[OGL LOG][Proc: 0]p: init_precond: 3.878 [ms]
[OGL LOG][StoppingCriterion.H:373] Creating stopping criterion with minIter 0 frequency 1
[OGL LOG][Proc: 0]p: generate_solver: 0.018 [ms]
[OGL LOG][Proc: 0]p: solve: 3418.08 [ms]
[OGL LOG][Proc: 0]p: copy_x_back: 3.05 [ms]
[OGL LOG][lduLduBase.H:330] 
Statistics:
	Time per iteration: 2140 [mu s]
	Time per residual norm calculation: 1146.000000 [mu s]
	Time per iteration and DOF: 0.267500 [ns]
	Retrieve results bandwidth 2.622000 [GByte/s]
[OGL LOG][Proc: 0]p: solve_multi_gpu: 3527.41 [ms]
BJhipGKOCG:  Solving for p, Initial residual = 1, Final residual = 9.91262e-05, No Iterations 1597
[INFO] SolveP: 3940.19 [ms]
time step continuity errors : sum local = 7.61708e-09, global = -1.63413e-21, cumulative = -1.63413e-21
[INFO] ContinuityError: 14.812 [ms]
[INFO] CorrectBoundary: 0.433 [ms]
[INFO] PISOStep: 4138.9 [ms]
[INFO] MatrixAssemblyPI: 101.749 [ms]
[INFO] AdjustPhi: 10.026 [ms]
[INFO] ConstrainPressure: 0.004 [ms]
[INFO] MatrixAssemblyPII: 30.584 [ms]
[OGL LOG][Proc: 0]: global_index_init: 0.099 [ms]
[OGL LOG][Proc: 0]p_local_coeffs: call_update: 0.004 [ms]
[OGL LOG][Proc: 0]p_non_local_coeffs: call_update: 0 [ms]
[OGL LOG][Proc: 0]p: update_local_matrix_data: 12.525 [ms]
[OGL LOG][Proc: 0]p: update_non_local_matrix_data: 0.117 [ms]
[OGL LOG][Proc: 0]p_matrix: call_update: 9.155 [ms]
[OGL LOG][Proc: 0]p_rhs: call_update: 3.08 [ms]
[OGL LOG][Preconditioner.H:121] Generate preconditioner BJ MaxBlockSize 1
[OGL LOG][Proc: 0]p: init_precond: 1.723 [ms]
[OGL LOG][StoppingCriterion.H:373] Creating stopping criterion with minIter 958 frequency 25
[OGL LOG][Proc: 0]p: generate_solver: 0.003 [ms]
[OGL LOG][Proc: 0]p: solve: 1440.2 [ms]
[OGL LOG][Proc: 0]p: copy_x_back: 2.916 [ms]
[OGL LOG][lduLduBase.H:330] 
Statistics:
	Time per iteration: 899 [mu s]
	Time per residual norm calculation: 281.000000 [mu s]
	Time per iteration and DOF: 0.112375 [ns]
	Retrieve results bandwidth 2.743000 [GByte/s]
[OGL LOG][Proc: 0]p: solve_multi_gpu: 1458.25 [ms]
BJhipGKOCG:  Solving for p, Initial residual = 0.786526, Final residual = 6.6723e-05, No Iterations 1601
[INFO] SolveP: 1474.95 [ms]
time step continuity errors : sum local = 6.40747e-09, global = -4.68682e-24, cumulative = -1.63882e-21
[INFO] ContinuityError: 15.158 [ms]
[INFO] CorrectBoundary: 0.408 [ms]
[INFO] PISOStep: 1669.49 [ms]
[INFO] TimeStep: 6417.03 [ms]
ExecutionTime = 8.32 s  ClockTime = 8 s

Time = 0.0005

Courant Number mean: 0.0159725 max: 0.41252
[INFO] MatrixAssemblyU: 80.53 [ms]
DILUPBiCGStab:  Solving for Ux, Initial residual = 0.129596, Final residual = 0.00510252, No Iterations 5
DILUPBiCGStab:  Solving for Uy, Initial residual = 0.426763, Final residual = 0.0132344, No Iterations 5
DILUPBiCGStab:  Solving for Uz, Initial residual = 0.993468, Final residual = 0.0333269, No Iterations 5
[INFO] MomentumPredictor: 883.62 [ms]
[INFO] MatrixAssemblyPI: 104.421 [ms]
[INFO] AdjustPhi: 5.439 [ms]
[INFO] ConstrainPressure: 0.003 [ms]
[INFO] MatrixAssemblyPII: 29.854 [ms]
[OGL LOG][Proc: 0]: global_index_init: 0.044 [ms]
[OGL LOG][Proc: 0]p_local_coeffs: call_update: 0 [ms]
[OGL LOG][Proc: 0]p_non_local_coeffs: call_update: 0 [ms]
[OGL LOG][Proc: 0]p: update_local_matrix_data: 11.574 [ms]
[OGL LOG][Proc: 0]p: update_non_local_matrix_data: 0.11 [ms]
[OGL LOG][Proc: 0]p_matrix: call_update: 9.105 [ms]
[OGL LOG][Proc: 0]p_rhs: call_update: 2.691 [ms]
[OGL LOG][Preconditioner.H:121] Generate preconditioner BJ MaxBlockSize 1
[OGL LOG][Proc: 0]p: init_precond: 0.686 [ms]
[OGL LOG][StoppingCriterion.H:373] Creating stopping criterion with minIter 960 frequency 14
[OGL LOG][Proc: 0]p: generate_solver: 0.003 [ms]
[OGL LOG][Proc: 0]p: solve: 1406.26 [ms]
[OGL LOG][Proc: 0]p: copy_x_back: 2.812 [ms]
[OGL LOG][lduLduBase.H:330] 
Statistics:
	Time per iteration: 896 [mu s]
	Time per residual norm calculation: 277.000000 [mu s]
	Time per iteration and DOF: 0.112000 [ns]
	Retrieve results bandwidth 2.844000 [GByte/s]
[OGL LOG][Proc: 0]p: solve_multi_gpu: 1423.48 [ms]
BJhipGKOCG:  Solving for p, Initial residual = 0.824103, Final residual = 9.70223e-05, No Iterations 1569
[INFO] SolveP: 1439.06 [ms]
time step continuity errors : sum local = 1.42137e-08, global = -1.21654e-22, cumulative = -1.76047e-21
[INFO] ContinuityError: 15.472 [ms]
[INFO] CorrectBoundary: 0.418 [ms]
[INFO] PISOStep: 1630.97 [ms]
[INFO] MatrixAssemblyPI: 103.686 [ms]
[INFO] AdjustPhi: 5.633 [ms]
[INFO] ConstrainPressure: 0.004 [ms]
[INFO] MatrixAssemblyPII: 29.536 [ms]
[OGL LOG][Proc: 0]: global_index_init: 0.042 [ms]
[OGL LOG][Proc: 0]p_local_coeffs: call_update: 0 [ms]
[OGL LOG][Proc: 0]p_non_local_coeffs: call_update: 0 [ms]
[OGL LOG][Proc: 0]p: update_local_matrix_data: 12.357 [ms]
[OGL LOG][Proc: 0]p: update_non_local_matrix_data: 0.123 [ms]
[OGL LOG][Proc: 0]p_matrix: call_update: 10.202 [ms]
[OGL LOG][Proc: 0]p_rhs: call_update: 2.342 [ms]
[OGL LOG][Preconditioner.H:121] Generate preconditioner BJ MaxBlockSize 1
[OGL LOG][Proc: 0]p: init_precond: 0.603 [ms]
[OGL LOG][StoppingCriterion.H:373] Creating stopping criterion with minIter 941 frequency 14
[OGL LOG][Proc: 0]p: generate_solver: 0.004 [ms]
[OGL LOG][Proc: 0]p: solve: 1433.16 [ms]
[OGL LOG][Proc: 0]p: copy_x_back: 2.783 [ms]
[OGL LOG][lduLduBase.H:330] 
Statistics:
	Time per iteration: 913 [mu s]
	Time per residual norm calculation: 283.000000 [mu s]
	Time per iteration and DOF: 0.114125 [ns]
	Retrieve results bandwidth 2.874000 [GByte/s]
[OGL LOG][Proc: 0]p: solve_multi_gpu: 1450.42 [ms]
BJhipGKOCG:  Solving for p, Initial residual = 0.767383, Final residual = 8.79241e-05, No Iterations 1569
[INFO] SolveP: 1466.76 [ms]
time step continuity errors : sum local = 1.31128e-08, global = 4.16587e-22, cumulative = -1.34388e-21
[INFO] ContinuityError: 14.322 [ms]
[INFO] CorrectBoundary: 0.582 [ms]
[INFO] PISOStep: 1657.94 [ms]
[INFO] TimeStep: 4266.61 [ms]
ExecutionTime = 13.74 s  ClockTime = 12 s

Time = 0.00075

Courant Number mean: 0.0243584 max: 0.471979
[INFO] MatrixAssemblyU: 79.913 [ms]
DILUPBiCGStab:  Solving for Ux, Initial residual = 0.0547585, Final residual = 0.00175941, No Iterations 5
DILUPBiCGStab:  Solving for Uy, Initial residual = 0.182079, Final residual = 0.0070753, No Iterations 5
DILUPBiCGStab:  Solving for Uz, Initial residual = 0.815432, Final residual = 0.0252566, No Iterations 5
[INFO] MomentumPredictor: 869.977 [ms]
[INFO] MatrixAssemblyPI: 103.521 [ms]
[INFO] AdjustPhi: 6.853 [ms]
[INFO] ConstrainPressure: 0.004 [ms]
[INFO] MatrixAssemblyPII: 29.102 [ms]
[OGL LOG][Proc: 0]: global_index_init: 0.177 [ms]
[OGL LOG][Proc: 0]p_local_coeffs: call_update: 0 [ms]
[OGL LOG][Proc: 0]p_non_local_coeffs: call_update: 0 [ms]
[OGL LOG][Proc: 0]p: update_local_matrix_data: 11.644 [ms]
[OGL LOG][Proc: 0]p: update_non_local_matrix_data: 0.111 [ms]
[OGL LOG][Proc: 0]p_matrix: call_update: 10.341 [ms]
[OGL LOG][Proc: 0]p_rhs: call_update: 1.738 [ms]
[OGL LOG][Preconditioner.H:121] Generate preconditioner BJ MaxBlockSize 1
[OGL LOG][Proc: 0]p: init_precond: 0.789 [ms]
[OGL LOG][StoppingCriterion.H:373] Creating stopping criterion with minIter 941 frequency 14
[OGL LOG][Proc: 0]p: generate_solver: 0.003 [ms]
[OGL LOG][Proc: 0]p: solve: 1414.9 [ms]
[OGL LOG][Proc: 0]p: copy_x_back: 3.105 [ms]
[OGL LOG][lduLduBase.H:330] 
Statistics:
	Time per iteration: 901 [mu s]
	Time per residual norm calculation: 283.000000 [mu s]
	Time per iteration and DOF: 0.112625 [ns]
	Retrieve results bandwidth 2.576000 [GByte/s]
[OGL LOG][Proc: 0]p: solve_multi_gpu: 1432.83 [ms]
BJhipGKOCG:  Solving for p, Initial residual = 0.848675, Final residual = 8.41069e-05, No Iterations 1569
[INFO] SolveP: 1448.32 [ms]
time step continuity errors : sum local = 1.12679e-08, global = -4.15437e-22, cumulative = -1.75932e-21
[INFO] ContinuityError: 15.585 [ms]
[INFO] CorrectBoundary: 0.428 [ms]
[INFO] PISOStep: 1641.21 [ms]
[INFO] MatrixAssemblyPI: 102.738 [ms]
[INFO] AdjustPhi: 5.511 [ms]
[INFO] ConstrainPressure: 0.004 [ms]
[INFO] MatrixAssemblyPII: 29.567 [ms]
[OGL LOG][Proc: 0]: global_index_init: 0.128 [ms]
[OGL LOG][Proc: 0]p_local_coeffs: call_update: 0 [ms]
[OGL LOG][Proc: 0]p_non_local_coeffs: call_update: 0 [ms]
[OGL LOG][Proc: 0]p: update_local_matrix_data: 12.421 [ms]
[OGL LOG][Proc: 0]p: update_non_local_matrix_data: 0.116 [ms]
[OGL LOG][Proc: 0]p_matrix: call_update: 14.981 [ms]
[OGL LOG][Proc: 0]p_rhs: call_update: 2.367 [ms]
[OGL LOG][Preconditioner.H:121] Generate preconditioner BJ MaxBlockSize 1
[OGL LOG][Proc: 0]p: init_precond: 0.605 [ms]
[OGL LOG][StoppingCriterion.H:373] Creating stopping criterion with minIter 941 frequency 14
[OGL LOG][Proc: 0]p: generate_solver: 0.003 [ms]
[OGL LOG][Proc: 0]p: solve: 1426.12 [ms]
[OGL LOG][Proc: 0]p: copy_x_back: 2.837 [ms]
[OGL LOG][lduLduBase.H:330] 
Statistics:
	Time per iteration: 908 [mu s]
	Time per residual norm calculation: 278.000000 [mu s]
	Time per iteration and DOF: 0.113500 [ns]
	Retrieve results bandwidth 2.819000 [GByte/s]
[OGL LOG][Proc: 0]p: solve_multi_gpu: 1447.85 [ms]
BJhipGKOCG:  Solving for p, Initial residual = 0.815332, Final residual = 7.66425e-05, No Iterations 1569
[INFO] SolveP: 1464.08 [ms]
time step continuity errors : sum local = 1.00466e-08, global = -8.64253e-22, cumulative = -2.62357e-21
[INFO] ContinuityError: 13.807 [ms]
[INFO] CorrectBoundary: 0.414 [ms]
[INFO] PISOStep: 1654.53 [ms]
[INFO] TimeStep: 4259.67 [ms]
ExecutionTime = 19.15 s  ClockTime = 16 s

Time = 0.001

Courant Number mean: 0.029233 max: 0.467776
[INFO] MatrixAssemblyU: 78.65 [ms]
DILUPBiCGStab:  Solving for Ux, Initial residual = 0.0346508, Final residual = 0.00116376, No Iterations 5
DILUPBiCGStab:  Solving for Uy, Initial residual = 0.129012, Final residual = 0.00438842, No Iterations 5
DILUPBiCGStab:  Solving for Uz, Initial residual = 0.601286, Final residual = 0.0148446, No Iterations 5
[INFO] MomentumPredictor: 876.087 [ms]
[INFO] MatrixAssemblyPI: 107.496 [ms]
[INFO] AdjustPhi: 5.468 [ms]
[INFO] ConstrainPressure: 0.004 [ms]
[INFO] MatrixAssemblyPII: 30.213 [ms]
[OGL LOG][Proc: 0]: global_index_init: 0.039 [ms]
[OGL LOG][Proc: 0]p_local_coeffs: call_update: 0 [ms]
[OGL LOG][Proc: 0]p_non_local_coeffs: call_update: 0 [ms]
[OGL LOG][Proc: 0]p: update_local_matrix_data: 11.973 [ms]
[OGL LOG][Proc: 0]p: update_non_local_matrix_data: 0.121 [ms]
[OGL LOG][Proc: 0]p_matrix: call_update: 13.101 [ms]
[OGL LOG][Proc: 0]p_rhs: call_update: 1.717 [ms]
[OGL LOG][Preconditioner.H:121] Generate preconditioner BJ MaxBlockSize 1
[OGL LOG][Proc: 0]p: init_precond: 0.58 [ms]
[OGL LOG][StoppingCriterion.H:373] Creating stopping criterion with minIter 941 frequency 14
[OGL LOG][Proc: 0]p: generate_solver: 0.004 [ms]
[OGL LOG][Proc: 0]p: solve: 862.609 [ms]
[OGL LOG][Proc: 0]p: copy_x_back: 2.773 [ms]
[OGL LOG][lduLduBase.H:330] 
Statistics:
	Time per iteration: 905 [mu s]
	Time per residual norm calculation: 291.000000 [mu s]
	Time per iteration and DOF: 0.113125 [ns]
	Retrieve results bandwidth 2.884000 [GByte/s]
[OGL LOG][Proc: 0]p: solve_multi_gpu: 881.746 [ms]
BJhipGKOCG:  Solving for p, Initial residual = 0.769343, Final residual = 5.23626e-05, No Iterations 953
[INFO] SolveP: 898.161 [ms]
time step continuity errors : sum local = 6.83544e-09, global = 1.5887e-22, cumulative = -2.4647e-21
[INFO] ContinuityError: 15.048 [ms]
[INFO] CorrectBoundary: 0.464 [ms]
[INFO] PISOStep: 1092.46 [ms]
[INFO] MatrixAssemblyPI: 99.321 [ms]
[INFO] AdjustPhi: 6.429 [ms]
[INFO] ConstrainPressure: 0.004 [ms]
[INFO] MatrixAssemblyPII: 29.377 [ms]
[OGL LOG][Proc: 0]: global_index_init: 0.033 [ms]
[OGL LOG][Proc: 0]p_local_coeffs: call_update: 0 [ms]
[OGL LOG][Proc: 0]p_non_local_coeffs: call_update: 0 [ms]
[OGL LOG][Proc: 0]p: update_local_matrix_data: 12.345 [ms]
[OGL LOG][Proc: 0]p: update_non_local_matrix_data: 0.121 [ms]
[OGL LOG][Proc: 0]p_matrix: call_update: 8.645 [ms]
[OGL LOG][Proc: 0]p_rhs: call_update: 3.643 [ms]
[OGL LOG][Preconditioner.H:121] Generate preconditioner BJ MaxBlockSize 1
[OGL LOG][Proc: 0]p: init_precond: 0.604 [ms]
[OGL LOG][StoppingCriterion.H:373] Creating stopping criterion with minIter 571 frequency 11
[OGL LOG][Proc: 0]p: generate_solver: 0.004 [ms]
[OGL LOG][Proc: 0]p: solve: 701.363 [ms]
[OGL LOG][Proc: 0]p: copy_x_back: 2.886 [ms]
[OGL LOG][lduLduBase.H:330] 
Statistics:
	Time per iteration: 922 [mu s]
	Time per residual norm calculation: 279.000000 [mu s]
	Time per iteration and DOF: 0.115250 [ns]
	Retrieve results bandwidth 2.772000 [GByte/s]
[OGL LOG][Proc: 0]p: solve_multi_gpu: 718.169 [ms]
BJhipGKOCG:  Solving for p, Initial residual = 0.706654, Final residual = 8.75172e-05, No Iterations 760
[INFO] SolveP: 734.459 [ms]
time step continuity errors : sum local = 1.09207e-08, global = -1.07533e-22, cumulative = -2.57224e-21
[INFO] ContinuityError: 14.547 [ms]
[INFO] CorrectBoundary: 0.414 [ms]
[INFO] PISOStep: 920.83 [ms]
[INFO] TimeStep: 2981.43 [ms]
ExecutionTime = 22.77 s  ClockTime = 19 s

Time = 0.00125

Courant Number mean: 0.0333806 max: 0.4729
[INFO] MatrixAssemblyU: 79.902 [ms]
DILUPBiCGStab:  Solving for Ux, Initial residual = 0.0270928, Final residual = 0.000842216, No Iterations 5
DILUPBiCGStab:  Solving for Uy, Initial residual = 0.0811955, Final residual = 0.00325904, No Iterations 5
DILUPBiCGStab:  Solving for Uz, Initial residual = 0.447946, Final residual = 0.0108802, No Iterations 5
[INFO] MomentumPredictor: 881.368 [ms]
[INFO] MatrixAssemblyPI: 101.929 [ms]
[INFO] AdjustPhi: 7.43 [ms]
[INFO] ConstrainPressure: 0.004 [ms]
[INFO] MatrixAssemblyPII: 29.221 [ms]
[OGL LOG][Proc: 0]: global_index_init: 0.098 [ms]
[OGL LOG][Proc: 0]p_local_coeffs: call_update: 0 [ms]
[OGL LOG][Proc: 0]p_non_local_coeffs: call_update: 0 [ms]
[OGL LOG][Proc: 0]p: update_local_matrix_data: 11.562 [ms]
[OGL LOG][Proc: 0]p: update_non_local_matrix_data: 0.117 [ms]
[OGL LOG][Proc: 0]p_matrix: call_update: 10.502 [ms]
[OGL LOG][Proc: 0]p_rhs: call_update: 1.315 [ms]
[OGL LOG][Preconditioner.H:121] Generate preconditioner BJ MaxBlockSize 1
[OGL LOG][Proc: 0]p: init_precond: 0.545 [ms]
[OGL LOG][StoppingCriterion.H:373] Creating stopping criterion with minIter 456 frequency 10
[OGL LOG][Proc: 0]p: generate_solver: 0.003 [ms]
[OGL LOG][Proc: 0]p: solve: 697.218 [ms]
[OGL LOG][Proc: 0]p: copy_x_back: 2.755 [ms]
[OGL LOG][lduLduBase.H:330] 
Statistics:
	Time per iteration: 940 [mu s]
	Time per residual norm calculation: 277.000000 [mu s]
	Time per iteration and DOF: 0.117500 [ns]
	Retrieve results bandwidth 2.903000 [GByte/s]
[OGL LOG][Proc: 0]p: solve_multi_gpu: 714.129 [ms]
BJhipGKOCG:  Solving for p, Initial residual = 0.77478, Final residual = 9.33022e-05, No Iterations 741
[INFO] SolveP: 729.723 [ms]
time step continuity errors : sum local = 9.58788e-09, global = -1.02844e-21, cumulative = -3.60068e-21
[INFO] ContinuityError: 14.72 [ms]
[INFO] CorrectBoundary: 0.398 [ms]
[INFO] PISOStep: 919.906 [ms]
[INFO] MatrixAssemblyPI: 99.245 [ms]
[INFO] AdjustPhi: 6.268 [ms]
[INFO] ConstrainPressure: 0.005 [ms]
[INFO] MatrixAssemblyPII: 29.352 [ms]
[OGL LOG][Proc: 0]: global_index_init: 0.045 [ms]
[OGL LOG][Proc: 0]p_local_coeffs: call_update: 0 [ms]
[OGL LOG][Proc: 0]p_non_local_coeffs: call_update: 0 [ms]
[OGL LOG][Proc: 0]p: update_local_matrix_data: 11.618 [ms]
[OGL LOG][Proc: 0]p: update_non_local_matrix_data: 0.117 [ms]
[OGL LOG][Proc: 0]p_matrix: call_update: 9.329 [ms]
[OGL LOG][Proc: 0]p_rhs: call_update: 2.78 [ms]
[OGL LOG][Preconditioner.H:121] Generate preconditioner BJ MaxBlockSize 1
[OGL LOG][Proc: 0]p: init_precond: 1.065 [ms]
[OGL LOG][StoppingCriterion.H:373] Creating stopping criterion with minIter 444 frequency 9
[OGL LOG][Proc: 0]p: generate_solver: 0.003 [ms]
[OGL LOG][Proc: 0]p: solve: 696.073 [ms]
[OGL LOG][Proc: 0]p: copy_x_back: 2.784 [ms]
[OGL LOG][lduLduBase.H:330] 
Statistics:
	Time per iteration: 941 [mu s]
	Time per residual norm calculation: 275.000000 [mu s]
	Time per iteration and DOF: 0.117625 [ns]
	Retrieve results bandwidth 2.873000 [GByte/s]
[OGL LOG][Proc: 0]p: solve_multi_gpu: 713.307 [ms]
BJhipGKOCG:  Solving for p, Initial residual = 0.723593, Final residual = 9.24312e-05, No Iterations 739
[INFO] SolveP: 729.421 [ms]
time step continuity errors : sum local = 9.22872e-09, global = -1.59814e-21, cumulative = -5.19882e-21
[INFO] ContinuityError: 15.648 [ms]
[INFO] CorrectBoundary: 0.445 [ms]
[INFO] PISOStep: 916.622 [ms]
[INFO] TimeStep: 2811.21 [ms]
ExecutionTime = 26.12 s  ClockTime = 22 s

Time = 0.0015

Courant Number mean: 0.036686 max: 0.475571
[INFO] MatrixAssemblyU: 81.017 [ms]
DILUPBiCGStab:  Solving for Ux, Initial residual = 0.0203808, Final residual = 0.000603394, No Iterations 5
DILUPBiCGStab:  Solving for Uy, Initial residual = 0.0656695, Final residual = 0.00224171, No Iterations 5
DILUPBiCGStab:  Solving for Uz, Initial residual = 0.325654, Final residual = 0.00777728, No Iterations 5
[INFO] MomentumPredictor: 874.984 [ms]
[INFO] MatrixAssemblyPI: 103.184 [ms]
[INFO] AdjustPhi: 5.459 [ms]
[INFO] ConstrainPressure: 0.004 [ms]
[INFO] MatrixAssemblyPII: 29.367 [ms]
[OGL LOG][Proc: 0]: global_index_init: 0.066 [ms]
[OGL LOG][Proc: 0]p_local_coeffs: call_update: 0 [ms]
[OGL LOG][Proc: 0]p_non_local_coeffs: call_update: 0 [ms]
[OGL LOG][Proc: 0]p: update_local_matrix_data: 11.615 [ms]
[OGL LOG][Proc: 0]p: update_non_local_matrix_data: 0.129 [ms]
[OGL LOG][Proc: 0]p_matrix: call_update: 10.667 [ms]
[OGL LOG][Proc: 0]p_rhs: call_update: 1.858 [ms]
[OGL LOG][Preconditioner.H:121] Generate preconditioner BJ MaxBlockSize 1
[OGL LOG][Proc: 0]p: init_precond: 0.588 [ms]
[OGL LOG][StoppingCriterion.H:373] Creating stopping criterion with minIter 443 frequency 9
[OGL LOG][Proc: 0]p: generate_solver: 0.003 [ms]
[OGL LOG][Proc: 0]p: solve: 690.869 [ms]
[OGL LOG][Proc: 0]p: copy_x_back: 2.779 [ms]
[OGL LOG][lduLduBase.H:330] 
Statistics:
	Time per iteration: 923 [mu s]
	Time per residual norm calculation: 276.000000 [mu s]
	Time per iteration and DOF: 0.115375 [ns]
	Retrieve results bandwidth 2.878000 [GByte/s]
[OGL LOG][Proc: 0]p: solve_multi_gpu: 708.036 [ms]
BJhipGKOCG:  Solving for p, Initial residual = 0.681292, Final residual = 9.45945e-05, No Iterations 748
[INFO] SolveP: 723.74 [ms]
time step continuity errors : sum local = 9.82994e-09, global = -2.25888e-21, cumulative = -7.4577e-21
[INFO] ContinuityError: 15.344 [ms]
[INFO] CorrectBoundary: 0.416 [ms]
[INFO] PISOStep: 912.642 [ms]
[INFO] MatrixAssemblyPI: 99.105 [ms]
[INFO] AdjustPhi: 6.445 [ms]
[INFO] ConstrainPressure: 0.004 [ms]
[INFO] MatrixAssemblyPII: 29.746 [ms]
[OGL LOG][Proc: 0]: global_index_init: 0.044 [ms]
[OGL LOG][Proc: 0]p_local_coeffs: call_update: 0.001 [ms]
[OGL LOG][Proc: 0]p_non_local_coeffs: call_update: 0 [ms]
[OGL LOG][Proc: 0]p: update_local_matrix_data: 12.458 [ms]
[OGL LOG][Proc: 0]p: update_non_local_matrix_data: 0.116 [ms]
[OGL LOG][Proc: 0]p_matrix: call_update: 8.809 [ms]
[OGL LOG][Proc: 0]p_rhs: call_update: 3.005 [ms]
[OGL LOG][Preconditioner.H:121] Generate preconditioner BJ MaxBlockSize 1
[OGL LOG][Proc: 0]p: init_precond: 2.939 [ms]
[OGL LOG][StoppingCriterion.H:373] Creating stopping criterion with minIter 448 frequency 9
[OGL LOG][Proc: 0]p: generate_solver: 0.003 [ms]
[OGL LOG][Proc: 0]p: solve: 679.884 [ms]
[OGL LOG][Proc: 0]p: copy_x_back: 2.764 [ms]
[OGL LOG][lduLduBase.H:330] 
Statistics:
	Time per iteration: 920 [mu s]
	Time per residual norm calculation: 275.000000 [mu s]
	Time per iteration and DOF: 0.115000 [ns]
	Retrieve results bandwidth 2.894000 [GByte/s]
[OGL LOG][Proc: 0]p: solve_multi_gpu: 698.355 [ms]
BJhipGKOCG:  Solving for p, Initial residual = 0.620516, Final residual = 8.64968e-05, No Iterations 739
[INFO] SolveP: 714.856 [ms]
time step continuity errors : sum local = 8.37475e-09, global = -1.25075e-21, cumulative = -8.70845e-21
[INFO] ContinuityError: 14.371 [ms]
[INFO] CorrectBoundary: 0.68 [ms]
[INFO] PISOStep: 899.82 [ms]
[INFO] TimeStep: 2781.99 [ms]
ExecutionTime = 29.44 s  ClockTime = 25 s

Time = 0.00175

Courant Number mean: 0.039604 max: 0.477516
[INFO] MatrixAssemblyU: 79.462 [ms]
DILUPBiCGStab:  Solving for Ux, Initial residual = 0.0173937, Final residual = 0.000478442, No Iterations 5
DILUPBiCGStab:  Solving for Uy, Initial residual = 0.0488564, Final residual = 0.00163369, No Iterations 5
DILUPBiCGStab:  Solving for Uz, Initial residual = 0.252419, Final residual = 0.00729429, No Iterations 5
[INFO] MomentumPredictor: 869.566 [ms]
[INFO] MatrixAssemblyPI: 103.834 [ms]
[INFO] AdjustPhi: 7.028 [ms]
[INFO] ConstrainPressure: 0.004 [ms]
[INFO] MatrixAssemblyPII: 29.405 [ms]
[OGL LOG][Proc: 0]: global_index_init: 0.041 [ms]
[OGL LOG][Proc: 0]p_local_coeffs: call_update: 0 [ms]
[OGL LOG][Proc: 0]p_non_local_coeffs: call_update: 0 [ms]
[OGL LOG][Proc: 0]p: update_local_matrix_data: 11.471 [ms]
[OGL LOG][Proc: 0]p: update_non_local_matrix_data: 0.137 [ms]
[OGL LOG][Proc: 0]p_matrix: call_update: 9.988 [ms]
[OGL LOG][Proc: 0]p_rhs: call_update: 2.18 [ms]
[OGL LOG][Preconditioner.H:121] Generate preconditioner BJ MaxBlockSize 1
[OGL LOG][Proc: 0]p: init_precond: 0.769 [ms]
[OGL LOG][StoppingCriterion.H:373] Creating stopping criterion with minIter 443 frequency 9
[OGL LOG][Proc: 0]p: generate_solver: 0.003 [ms]
[OGL LOG][Proc: 0]p: solve: 1376.23 [ms]
[OGL LOG][Proc: 0]p: copy_x_back: 2.772 [ms]
[OGL LOG][lduLduBase.H:330] 
Statistics:
	Time per iteration: 909 [mu s]
	Time per residual norm calculation: 276.000000 [mu s]
	Time per iteration and DOF: 0.113625 [ns]
	Retrieve results bandwidth 2.886000 [GByte/s]
[OGL LOG][Proc: 0]p: solve_multi_gpu: 1393.66 [ms]
BJhipGKOCG:  Solving for p, Initial residual = 0.677182, Final residual = 8.42979e-05, No Iterations 1513
[INFO] SolveP: 1409.29 [ms]
time step continuity errors : sum local = 6.51887e-09, global = -3.76363e-21, cumulative = -1.24721e-20
[INFO] ContinuityError: 14.062 [ms]
[INFO] CorrectBoundary: 0.424 [ms]
[INFO] PISOStep: 1599.93 [ms]
[INFO] MatrixAssemblyPI: 101.92 [ms]
[INFO] AdjustPhi: 5.534 [ms]
[INFO] ConstrainPressure: 0.004 [ms]
[INFO] MatrixAssemblyPII: 29.572 [ms]
[OGL LOG][Proc: 0]: global_index_init: 0.048 [ms]
[OGL LOG][Proc: 0]p_local_coeffs: call_update: 0 [ms]
[OGL LOG][Proc: 0]p_non_local_coeffs: call_update: 0 [ms]
[OGL LOG][Proc: 0]p: update_local_matrix_data: 11.674 [ms]
[OGL LOG][Proc: 0]p: update_non_local_matrix_data: 0.114 [ms]
[OGL LOG][Proc: 0]p_matrix: call_update: 10.54 [ms]
[OGL LOG][Proc: 0]p_rhs: call_update: 1.426 [ms]
[OGL LOG][Preconditioner.H:121] Generate preconditioner BJ MaxBlockSize 1
[OGL LOG][Proc: 0]p: init_precond: 0.533 [ms]
[OGL LOG][StoppingCriterion.H:373] Creating stopping criterion with minIter 907 frequency 14
[OGL LOG][Proc: 0]p: generate_solver: 0.005 [ms]
[OGL LOG][Proc: 0]p: solve: 1358.62 [ms]
[OGL LOG][Proc: 0]p: copy_x_back: 2.814 [ms]
[OGL LOG][lduLduBase.H:330] 
Statistics:
	Time per iteration: 897 [mu s]
	Time per residual norm calculation: 272.000000 [mu s]
	Time per iteration and DOF: 0.112125 [ns]
	Retrieve results bandwidth 2.842000 [GByte/s]
[OGL LOG][Proc: 0]p: solve_multi_gpu: 1374.89 [ms]
BJhipGKOCG:  Solving for p, Initial residual = 0.617321, Final residual = 7.6672e-05, No Iterations 1513
[INFO] SolveP: 1390.67 [ms]
time step continuity errors : sum local = 5.89853e-09, global = -9.54088e-22, cumulative = -1.34262e-20
[INFO] ContinuityError: 14.469 [ms]
[INFO] CorrectBoundary: 0.404 [ms]
[INFO] PISOStep: 1579.72 [ms]
[INFO] TimeStep: 4142.05 [ms]
ExecutionTime = 34.69 s  ClockTime = 29 s

Time = 0.002

Courant Number mean: 0.0421308 max: 0.47922
[INFO] MatrixAssemblyU: 80.459 [ms]
DILUPBiCGStab:  Solving for Ux, Initial residual = 0.014256, Final residual = 0.000366452, No Iterations 5
DILUPBiCGStab:  Solving for Uy, Initial residual = 0.0416191, Final residual = 0.00126868, No Iterations 5
DILUPBiCGStab:  Solving for Uz, Initial residual = 0.196615, Final residual = 0.00549044, No Iterations 5
[INFO] MomentumPredictor: 880.407 [ms]
[INFO] MatrixAssemblyPI: 102.973 [ms]
[INFO] AdjustPhi: 5.473 [ms]
[INFO] ConstrainPressure: 0.004 [ms]
[INFO] MatrixAssemblyPII: 29.248 [ms]
[OGL LOG][Proc: 0]: global_index_init: 0.047 [ms]
[OGL LOG][Proc: 0]p_local_coeffs: call_update: 0 [ms]
[OGL LOG][Proc: 0]p_non_local_coeffs: call_update: 0 [ms]
[OGL LOG][Proc: 0]p: update_local_matrix_data: 11.496 [ms]
[OGL LOG][Proc: 0]p: update_non_local_matrix_data: 0.118 [ms]
[OGL LOG][Proc: 0]p_matrix: call_update: 19.351 [ms]
[OGL LOG][Proc: 0]p_rhs: call_update: 2.93 [ms]
[OGL LOG][Preconditioner.H:121] Generate preconditioner BJ MaxBlockSize 1
[OGL LOG][Proc: 0]p: init_precond: 0.548 [ms]
[OGL LOG][StoppingCriterion.H:373] Creating stopping criterion with minIter 907 frequency 14
[OGL LOG][Proc: 0]p: generate_solver: 0.004 [ms]
[OGL LOG][Proc: 0]p: solve: 1362.77 [ms]
[OGL LOG][Proc: 0]p: copy_x_back: 2.806 [ms]
[OGL LOG][lduLduBase.H:330] 
Statistics:
	Time per iteration: 900 [mu s]
	Time per residual norm calculation: 279.000000 [mu s]
	Time per iteration and DOF: 0.112500 [ns]
	Retrieve results bandwidth 2.851000 [GByte/s]
[OGL LOG][Proc: 0]p: solve_multi_gpu: 1389.62 [ms]
BJhipGKOCG:  Solving for p, Initial residual = 0.585976, Final residual = 9.11838e-05, No Iterations 1513
[INFO] SolveP: 1405.06 [ms]
time step continuity errors : sum local = 6.71212e-09, global = -3.35905e-21, cumulative = -1.67852e-20
[INFO] ContinuityError: 15.108 [ms]
[INFO] CorrectBoundary: 0.408 [ms]
[INFO] PISOStep: 1594.19 [ms]
[INFO] MatrixAssemblyPI: 99.396 [ms]
[INFO] AdjustPhi: 5.624 [ms]
[INFO] ConstrainPressure: 0.005 [ms]
[INFO] MatrixAssemblyPII: 29.682 [ms]
[OGL LOG][Proc: 0]: global_index_init: 0.049 [ms]
[OGL LOG][Proc: 0]p_local_coeffs: call_update: 0 [ms]
[OGL LOG][Proc: 0]p_non_local_coeffs: call_update: 0 [ms]
[OGL LOG][Proc: 0]p: update_local_matrix_data: 12.426 [ms]
[OGL LOG][Proc: 0]p: update_non_local_matrix_data: 0.117 [ms]
[OGL LOG][Proc: 0]p_matrix: call_update: 18.732 [ms]
[OGL LOG][Proc: 0]p_rhs: call_update: 0.989 [ms]
[OGL LOG][Preconditioner.H:121] Generate preconditioner BJ MaxBlockSize 1
[OGL LOG][Proc: 0]p: init_precond: 0.511 [ms]
[OGL LOG][StoppingCriterion.H:373] Creating stopping criterion with minIter 907 frequency 14
[OGL LOG][Proc: 0]p: generate_solver: 0.004 [ms]
[OGL LOG][Proc: 0]p: solve: 1358.23 [ms]
[OGL LOG][Proc: 0]p: copy_x_back: 2.813 [ms]
[OGL LOG][lduLduBase.H:330] 
Statistics:
	Time per iteration: 897 [mu s]
	Time per residual norm calculation: 318.000000 [mu s]
	Time per iteration and DOF: 0.112125 [ns]
	Retrieve results bandwidth 2.843000 [GByte/s]
[OGL LOG][Proc: 0]p: solve_multi_gpu: 1382.31 [ms]
BJhipGKOCG:  Solving for p, Initial residual = 0.528114, Final residual = 8.37413e-05, No Iterations 1513
[INFO] SolveP: 1398.8 [ms]
time step continuity errors : sum local = 6.1497e-09, global = -2.86576e-21, cumulative = -1.9651e-20
[INFO] ContinuityError: 14.043 [ms]
[INFO] CorrectBoundary: 0.404 [ms]
[INFO] PISOStep: 1584.23 [ms]
[INFO] TimeStep: 4152.65 [ms]
ExecutionTime = 39.95 s  ClockTime = 33 s

Time = 0.00225

Courant Number mean: 0.0444171 max: 0.48037
[INFO] MatrixAssemblyU: 79.781 [ms]
DILUPBiCGStab:  Solving for Ux, Initial residual = 0.0125411, Final residual = 0.000301398, No Iterations 5
DILUPBiCGStab:  Solving for Uy, Initial residual = 0.0334844, Final residual = 0.00089405, No Iterations 5
DILUPBiCGStab:  Solving for Uz, Initial residual = 0.158316, Final residual = 0.0051851, No Iterations 5
[INFO] MomentumPredictor: 871.349 [ms]
[INFO] MatrixAssemblyPI: 102.078 [ms]
[INFO] AdjustPhi: 5.529 [ms]
[INFO] ConstrainPressure: 0.004 [ms]
[INFO] MatrixAssemblyPII: 29.671 [ms]
[OGL LOG][Proc: 0]: global_index_init: 0.046 [ms]
[OGL LOG][Proc: 0]p_local_coeffs: call_update: 0 [ms]
[OGL LOG][Proc: 0]p_non_local_coeffs: call_update: 0 [ms]
[OGL LOG][Proc: 0]p: update_local_matrix_data: 11.525 [ms]
[OGL LOG][Proc: 0]p: update_non_local_matrix_data: 0.117 [ms]
[OGL LOG][Proc: 0]p_matrix: call_update: 10.164 [ms]
[OGL LOG][Proc: 0]p_rhs: call_update: 2.111 [ms]
[OGL LOG][Preconditioner.H:121] Generate preconditioner BJ MaxBlockSize 1
[OGL LOG][Proc: 0]p: init_precond: 0.574 [ms]
[OGL LOG][StoppingCriterion.H:373] Creating stopping criterion with minIter 907 frequency 17
[OGL LOG][Proc: 0]p: generate_solver: 0.003 [ms]
[OGL LOG][Proc: 0]p: solve: 1343.16 [ms]
[OGL LOG][Proc: 0]p: copy_x_back: 2.946 [ms]
[OGL LOG][lduLduBase.H:330] 
Statistics:
	Time per iteration: 897 [mu s]
	Time per residual norm calculation: 279.000000 [mu s]
	Time per iteration and DOF: 0.112125 [ns]
	Retrieve results bandwidth 2.715000 [GByte/s]
[OGL LOG][Proc: 0]p: solve_multi_gpu: 1359.95 [ms]
BJhipGKOCG:  Solving for p, Initial residual = 0.572976, Final residual = 8.9712e-05, No Iterations 1497
[INFO] SolveP: 1375.31 [ms]
time step continuity errors : sum local = 5.7239e-09, global = -2.90081e-21, cumulative = -2.25518e-20
[INFO] ContinuityError: 14.566 [ms]
[INFO] CorrectBoundary: 0.419 [ms]
[INFO] PISOStep: 1562.92 [ms]
[INFO] MatrixAssemblyPI: 99.051 [ms]
[INFO] AdjustPhi: 5.971 [ms]
[INFO] ConstrainPressure: 0.004 [ms]
[INFO] MatrixAssemblyPII: 29.624 [ms]
[OGL LOG][Proc: 0]: global_index_init: 0.053 [ms]
[OGL LOG][Proc: 0]p_local_coeffs: call_update: 0.001 [ms]
[OGL LOG][Proc: 0]p_non_local_coeffs: call_update: 0 [ms]
[OGL LOG][Proc: 0]p: update_local_matrix_data: 11.6 [ms]
[OGL LOG][Proc: 0]p: update_non_local_matrix_data: 0.117 [ms]
[OGL LOG][Proc: 0]p_matrix: call_update: 10.534 [ms]
[OGL LOG][Proc: 0]p_rhs: call_update: 1.82 [ms]
[OGL LOG][Preconditioner.H:121] Generate preconditioner BJ MaxBlockSize 1
[OGL LOG][Proc: 0]p: init_precond: 0.555 [ms]
[OGL LOG][StoppingCriterion.H:373] Creating stopping criterion with minIter 898 frequency 14
[OGL LOG][Proc: 0]p: generate_solver: 0.003 [ms]
[OGL LOG][Proc: 0]p: solve: 1343.28 [ms]
[OGL LOG][Proc: 0]p: copy_x_back: 2.835 [ms]
[OGL LOG][lduLduBase.H:330] 
Statistics:
	Time per iteration: 896 [mu s]
	Time per residual norm calculation: 276.000000 [mu s]
	Time per iteration and DOF: 0.112000 [ns]
	Retrieve results bandwidth 2.821000 [GByte/s]
[OGL LOG][Proc: 0]p: solve_multi_gpu: 1360.8 [ms]
BJhipGKOCG:  Solving for p, Initial residual = 0.511856, Final residual = 8.02144e-05, No Iterations 1499
[INFO] SolveP: 1376.73 [ms]
time step continuity errors : sum local = 5.11633e-09, global = -2.37786e-21, cumulative = -2.49297e-20
[INFO] ContinuityError: 13.791 [ms]
[INFO] CorrectBoundary: 0.419 [ms]
[INFO] PISOStep: 1561.86 [ms]
[INFO] TimeStep: 4089.24 [ms]
ExecutionTime = 45.15 s  ClockTime = 37 s

Time = 0.0025

Courant Number mean: 0.0464716 max: 0.481475
[INFO] MatrixAssemblyU: 80.454 [ms]
DILUPBiCGStab:  Solving for Ux, Initial residual = 0.0107887, Final residual = 0.000242449, No Iterations 5
DILUPBiCGStab:  Solving for Uy, Initial residual = 0.0293479, Final residual = 0.000733634, No Iterations 5
DILUPBiCGStab:  Solving for Uz, Initial residual = 0.127584, Final residual = 0.00418929, No Iterations 5
[INFO] MomentumPredictor: 875.231 [ms]
[INFO] MatrixAssemblyPI: 102.004 [ms]
[INFO] AdjustPhi: 6.873 [ms]
[INFO] ConstrainPressure: 0.004 [ms]
[INFO] MatrixAssemblyPII: 29.207 [ms]
[OGL LOG][Proc: 0]: global_index_init: 0.089 [ms]
[OGL LOG][Proc: 0]p_local_coeffs: call_update: 0 [ms]
[OGL LOG][Proc: 0]p_non_local_coeffs: call_update: 0 [ms]
[OGL LOG][Proc: 0]p: update_local_matrix_data: 11.516 [ms]
[OGL LOG][Proc: 0]p: update_non_local_matrix_data: 0.115 [ms]
[OGL LOG][Proc: 0]p_matrix: call_update: 10.566 [ms]
[OGL LOG][Proc: 0]p_rhs: call_update: 1.486 [ms]
[OGL LOG][Preconditioner.H:121] Generate preconditioner BJ MaxBlockSize 1
[OGL LOG][Proc: 0]p: init_precond: 0.581 [ms]
[OGL LOG][StoppingCriterion.H:373] Creating stopping criterion with minIter 899 frequency 14
[OGL LOG][Proc: 0]p: generate_solver: 0.003 [ms]
[OGL LOG][Proc: 0]p: solve: 1356.77 [ms]
[OGL LOG][Proc: 0]p: copy_x_back: 2.902 [ms]
[OGL LOG][lduLduBase.H:330] 
Statistics:
	Time per iteration: 905 [mu s]
	Time per residual norm calculation: 318.000000 [mu s]
	Time per iteration and DOF: 0.113125 [ns]
	Retrieve results bandwidth 2.756000 [GByte/s]
[OGL LOG][Proc: 0]p: solve_multi_gpu: 1373.35 [ms]
BJhipGKOCG:  Solving for p, Initial residual = 0.496175, Final residual = 8.91712e-05, No Iterations 1499
[INFO] SolveP: 1388.82 [ms]
time step continuity errors : sum local = 5.52271e-09, global = -2.69902e-21, cumulative = -2.76287e-20
[INFO] ContinuityError: 14.264 [ms]
[INFO] CorrectBoundary: 0.396 [ms]
[INFO] PISOStep: 1578.74 [ms]
[INFO] MatrixAssemblyPI: 101.01 [ms]
[INFO] AdjustPhi: 5.517 [ms]
[INFO] ConstrainPressure: 0.004 [ms]
[INFO] MatrixAssemblyPII: 29.252 [ms]
[OGL LOG][Proc: 0]: global_index_init: 0.142 [ms]
[OGL LOG][Proc: 0]p_local_coeffs: call_update: 0 [ms]
[OGL LOG][Proc: 0]p_non_local_coeffs: call_update: 0 [ms]
[OGL LOG][Proc: 0]p: update_local_matrix_data: 11.608 [ms]
[OGL LOG][Proc: 0]p: update_non_local_matrix_data: 0.114 [ms]
[OGL LOG][Proc: 0]p_matrix: call_update: 11.412 [ms]
[OGL LOG][Proc: 0]p_rhs: call_update: 1.718 [ms]
[OGL LOG][Preconditioner.H:121] Generate preconditioner BJ MaxBlockSize 1
[OGL LOG][Proc: 0]p: init_precond: 0.556 [ms]
[OGL LOG][StoppingCriterion.H:373] Creating stopping criterion with minIter 899 frequency 17
[OGL LOG][Proc: 0]p: generate_solver: 0.002 [ms]
[OGL LOG][Proc: 0]p: solve: 1335.85 [ms]
[OGL LOG][Proc: 0]p: copy_x_back: 2.821 [ms]
[OGL LOG][lduLduBase.H:330] 
Statistics:
	Time per iteration: 892 [mu s]
	Time per residual norm calculation: 276.000000 [mu s]
	Time per iteration and DOF: 0.111500 [ns]
	Retrieve results bandwidth 2.835000 [GByte/s]
[OGL LOG][Proc: 0]p: solve_multi_gpu: 1353.49 [ms]
BJhipGKOCG:  Solving for p, Initial residual = 0.443212, Final residual = 8.63674e-05, No Iterations 1497
[INFO] SolveP: 1369.61 [ms]
time step continuity errors : sum local = 5.32595e-09, global = -2.56096e-21, cumulative = -3.01896e-20
[INFO] ContinuityError: 15.193 [ms]
[INFO] CorrectBoundary: 0.424 [ms]
[INFO] PISOStep: 1556.33 [ms]
[INFO] TimeStep: 4104.26 [ms]
ExecutionTime = 50.36 s  ClockTime = 41 s

Time = 0.00275

Courant Number mean: 0.0483595 max: 0.482248
[INFO] MatrixAssemblyU: 78.943 [ms]
DILUPBiCGStab:  Solving for Ux, Initial residual = 0.00966535, Final residual = 0.000204472, No Iterations 5
DILUPBiCGStab:  Solving for Uy, Initial residual = 0.0248273, Final residual = 0.000528901, No Iterations 5
DILUPBiCGStab:  Solving for Uz, Initial residual = 0.106633, Final residual = 0.00396567, No Iterations 5
[INFO] MomentumPredictor: 872.056 [ms]
[INFO] MatrixAssemblyPI: 102.729 [ms]
[INFO] AdjustPhi: 6.026 [ms]
[INFO] ConstrainPressure: 0.004 [ms]
[INFO] MatrixAssemblyPII: 29.548 [ms]
[OGL LOG][Proc: 0]: global_index_init: 0.043 [ms]
[OGL LOG][Proc: 0]p_local_coeffs: call_update: 0 [ms]
[OGL LOG][Proc: 0]p_non_local_coeffs: call_update: 0 [ms]
[OGL LOG][Proc: 0]p: update_local_matrix_data: 12.366 [ms]
[OGL LOG][Proc: 0]p: update_non_local_matrix_data: 0.13 [ms]
[OGL LOG][Proc: 0]p_matrix: call_update: 10.188 [ms]
[OGL LOG][Proc: 0]p_rhs: call_update: 1.784 [ms]
[OGL LOG][Preconditioner.H:121] Generate preconditioner BJ MaxBlockSize 1
[OGL LOG][Proc: 0]p: init_precond: 0.629 [ms]
[OGL LOG][StoppingCriterion.H:373] Creating stopping criterion with minIter 898 frequency 14
[OGL LOG][Proc: 0]p: generate_solver: 0.003 [ms]
[OGL LOG][Proc: 0]p: solve: 1345.58 [ms]
[OGL LOG][Proc: 0]p: copy_x_back: 2.803 [ms]
[OGL LOG][lduLduBase.H:330] 
Statistics:
	Time per iteration: 906 [mu s]
	Time per residual norm calculation: 324.000000 [mu s]
	Time per iteration and DOF: 0.113250 [ns]
	Retrieve results bandwidth 2.854000 [GByte/s]
[OGL LOG][Proc: 0]p: solve_multi_gpu: 1361.99 [ms]
BJhipGKOCG:  Solving for p, Initial residual = 0.471779, Final residual = 7.89268e-05, No Iterations 1485
[INFO] SolveP: 1378.45 [ms]
time step continuity errors : sum local = 4.41842e-09, global = -6.14675e-21, cumulative = -3.63364e-20
[INFO] ContinuityError: 14.295 [ms]
[INFO] CorrectBoundary: 0.41 [ms]
[INFO] PISOStep: 1567.26 [ms]
[INFO] MatrixAssemblyPI: 99.182 [ms]
[INFO] AdjustPhi: 5.964 [ms]
[INFO] ConstrainPressure: 0.005 [ms]
[INFO] MatrixAssemblyPII: 29.412 [ms]
[OGL LOG][Proc: 0]: global_index_init: 0.041 [ms]
[OGL LOG][Proc: 0]p_local_coeffs: call_update: 0 [ms]
[OGL LOG][Proc: 0]p_non_local_coeffs: call_update: 0 [ms]
[OGL LOG][Proc: 0]p: update_local_matrix_data: 11.643 [ms]
[OGL LOG][Proc: 0]p: update_non_local_matrix_data: 0.117 [ms]
[OGL LOG][Proc: 0]p_matrix: call_update: 10.607 [ms]
[OGL LOG][Proc: 0]p_rhs: call_update: 2.22 [ms]
[OGL LOG][Preconditioner.H:121] Generate preconditioner BJ MaxBlockSize 1
[OGL LOG][Proc: 0]p: init_precond: 0.516 [ms]
[OGL LOG][StoppingCriterion.H:373] Creating stopping criterion with minIter 891 frequency 17
[OGL LOG][Proc: 0]p: generate_solver: 0.003 [ms]
[OGL LOG][Proc: 0]p: solve: 1318.43 [ms]
[OGL LOG][Proc: 0]p: copy_x_back: 2.819 [ms]
[OGL LOG][lduLduBase.H:330] 
Statistics:
	Time per iteration: 890 [mu s]
	Time per residual norm calculation: 272.000000 [mu s]
	Time per iteration and DOF: 0.111250 [ns]
	Retrieve results bandwidth 2.837000 [GByte/s]
[OGL LOG][Proc: 0]p: solve_multi_gpu: 1335.55 [ms]
BJhipGKOCG:  Solving for p, Initial residual = 0.417036, Final residual = 8.12656e-05, No Iterations 1480
[INFO] SolveP: 1351.16 [ms]
time step continuity errors : sum local = 4.55431e-09, global = -1.19978e-21, cumulative = -3.75362e-20
[INFO] ContinuityError: 16.012 [ms]
[INFO] CorrectBoundary: 0.432 [ms]
[INFO] PISOStep: 1537.67 [ms]
[INFO] TimeStep: 4069.72 [ms]
ExecutionTime = 55.53 s  ClockTime = 45 s

Time = 0.003

Courant Number mean: 0.0500919 max: 0.483038
[INFO] MatrixAssemblyU: 79.176 [ms]
DILUPBiCGStab:  Solving for Ux, Initial residual = 0.00857643, Final residual = 0.00017091, No Iterations 5
DILUPBiCGStab:  Solving for Uy, Initial residual = 0.0221856, Final residual = 0.000438759, No Iterations 5
DILUPBiCGStab:  Solving for Uz, Initial residual = 0.0890202, Final residual = 0.00333586, No Iterations 5
[INFO] MomentumPredictor: 870.871 [ms]
[INFO] MatrixAssemblyPI: 102.357 [ms]
[INFO] AdjustPhi: 5.583 [ms]
[INFO] ConstrainPressure: 0.003 [ms]
[INFO] MatrixAssemblyPII: 29.103 [ms]
[OGL LOG][Proc: 0]: global_index_init: 0.196 [ms]
[OGL LOG][Proc: 0]p_local_coeffs: call_update: 0 [ms]
[OGL LOG][Proc: 0]p_non_local_coeffs: call_update: 0 [ms]
[OGL LOG][Proc: 0]p: update_local_matrix_data: 11.461 [ms]
[OGL LOG][Proc: 0]p: update_non_local_matrix_data: 0.121 [ms]
[OGL LOG][Proc: 0]p_matrix: call_update: 10.259 [ms]
[OGL LOG][Proc: 0]p_rhs: call_update: 2.197 [ms]
[OGL LOG][Preconditioner.H:121] Generate preconditioner BJ MaxBlockSize 1
[OGL LOG][Proc: 0]p: init_precond: 0.556 [ms]
[OGL LOG][StoppingCriterion.H:373] Creating stopping criterion with minIter 888 frequency 14
[OGL LOG][Proc: 0]p: generate_solver: 0.003 [ms]
[OGL LOG][Proc: 0]p: solve: 1290.87 [ms]
[OGL LOG][Proc: 0]p: copy_x_back: 2.789 [ms]
[OGL LOG][lduLduBase.H:330] 
Statistics:
	Time per iteration: 894 [mu s]
	Time per residual norm calculation: 274.000000 [mu s]
	Time per iteration and DOF: 0.111750 [ns]
	Retrieve results bandwidth 2.868000 [GByte/s]
[OGL LOG][Proc: 0]p: solve_multi_gpu: 1308.32 [ms]
BJhipGKOCG:  Solving for p, Initial residual = 0.414522, Final residual = 9.07415e-05, No Iterations 1443
[INFO] SolveP: 1324.07 [ms]
time step continuity errors : sum local = 4.93587e-09, global = -5.28144e-21, cumulative = -4.28176e-20
[INFO] ContinuityError: 14.079 [ms]
[INFO] CorrectBoundary: 0.42 [ms]
[INFO] PISOStep: 1512.45 [ms]
[INFO] MatrixAssemblyPI: 99.387 [ms]
[INFO] AdjustPhi: 5.948 [ms]
[INFO] ConstrainPressure: 0.004 [ms]
[INFO] MatrixAssemblyPII: 30.062 [ms]
[OGL LOG][Proc: 0]: global_index_init: 0.039 [ms]
[OGL LOG][Proc: 0]p_local_coeffs: call_update: 0 [ms]
[OGL LOG][Proc: 0]p_non_local_coeffs: call_update: 0 [ms]
[OGL LOG][Proc: 0]p: update_local_matrix_data: 11.506 [ms]
[OGL LOG][Proc: 0]p: update_non_local_matrix_data: 0.128 [ms]
[OGL LOG][Proc: 0]p_matrix: call_update: 12.547 [ms]
[OGL LOG][Proc: 0]p_rhs: call_update: 2.613 [ms]
[OGL LOG][Preconditioner.H:121] Generate preconditioner BJ MaxBlockSize 1
[OGL LOG][Proc: 0]p: init_precond: 0.57 [ms]
[OGL LOG][StoppingCriterion.H:373] Creating stopping criterion with minIter 865 frequency 13
[OGL LOG][Proc: 0]p: generate_solver: 0.003 [ms]
[OGL LOG][Proc: 0]p: solve: 1340.15 [ms]
[OGL LOG][Proc: 0]p: copy_x_back: 3.108 [ms]
[OGL LOG][lduLduBase.H:330] 
Statistics:
	Time per iteration: 911 [mu s]
	Time per residual norm calculation: 275.000000 [mu s]
	Time per iteration and DOF: 0.113875 [ns]
	Retrieve results bandwidth 2.574000 [GByte/s]
[OGL LOG][Proc: 0]p: solve_multi_gpu: 1360.15 [ms]
BJhipGKOCG:  Solving for p, Initial residual = 0.367642, Final residual = 9.48577e-05, No Iterations 1470
[INFO] SolveP: 1375.68 [ms]
time step continuity errors : sum local = 5.13663e-09, global = -4.10436e-21, cumulative = -4.6922e-20
[INFO] ContinuityError: 17.107 [ms]
[INFO] CorrectBoundary: 0.41 [ms]
[INFO] PISOStep: 1564.54 [ms]
[INFO] TimeStep: 4040.52 [ms]
ExecutionTime = 60.66 s  ClockTime = 49 s

Time = 0.00325

Courant Number mean: 0.051701 max: 0.483603
[INFO] MatrixAssemblyU: 81.137 [ms]
DILUPBiCGStab:  Solving for Ux, Initial residual = 0.00778535, Final residual = 0.000146894, No Iterations 5
DILUPBiCGStab:  Solving for Uy, Initial residual = 0.0194172, Final residual = 0.000338999, No Iterations 5
DILUPBiCGStab:  Solving for Uz, Initial residual = 0.0761261, Final residual = 0.00311541, No Iterations 5
[INFO] MomentumPredictor: 870.64 [ms]
[INFO] MatrixAssemblyPI: 103.761 [ms]
[INFO] AdjustPhi: 6.625 [ms]
[INFO] ConstrainPressure: 0.003 [ms]
[INFO] MatrixAssemblyPII: 29.399 [ms]
[OGL LOG][Proc: 0]: global_index_init: 0.136 [ms]
[OGL LOG][Proc: 0]p_local_coeffs: call_update: 0 [ms]
[OGL LOG][Proc: 0]p_non_local_coeffs: call_update: 0 [ms]
[OGL LOG][Proc: 0]p: update_local_matrix_data: 11.54 [ms]
[OGL LOG][Proc: 0]p: update_non_local_matrix_data: 0.115 [ms]
[OGL LOG][Proc: 0]p_matrix: call_update: 13.284 [ms]
[OGL LOG][Proc: 0]p_rhs: call_update: 2.377 [ms]
[OGL LOG][Preconditioner.H:121] Generate preconditioner BJ MaxBlockSize 1
[OGL LOG][Proc: 0]p: init_precond: 0.594 [ms]
[OGL LOG][StoppingCriterion.H:373] Creating stopping criterion with minIter 882 frequency 14
[OGL LOG][Proc: 0]p: generate_solver: 0.003 [ms]
[OGL LOG][Proc: 0]p: solve: 1336.69 [ms]
[OGL LOG][Proc: 0]p: copy_x_back: 2.935 [ms]
[OGL LOG][lduLduBase.H:330] 
Statistics:
	Time per iteration: 900 [mu s]
	Time per residual norm calculation: 303.000000 [mu s]
	Time per iteration and DOF: 0.112500 [ns]
	Retrieve results bandwidth 2.725000 [GByte/s]
[OGL LOG][Proc: 0]p: solve_multi_gpu: 1357.61 [ms]
BJhipGKOCG:  Solving for p, Initial residual = 0.383713, Final residual = 7.63178e-05, No Iterations 1485
[INFO] SolveP: 1373.25 [ms]
time step continuity errors : sum local = 3.88096e-09, global = -3.25328e-21, cumulative = -5.01752e-20
[INFO] ContinuityError: 14.826 [ms]
[INFO] CorrectBoundary: 0.398 [ms]
[INFO] PISOStep: 1563.28 [ms]
[INFO] MatrixAssemblyPI: 99.507 [ms]
[INFO] AdjustPhi: 7.037 [ms]
[INFO] ConstrainPressure: 0.004 [ms]
[INFO] MatrixAssemblyPII: 29.509 [ms]
[OGL LOG][Proc: 0]: global_index_init: 0.097 [ms]
[OGL LOG][Proc: 0]p_local_coeffs: call_update: 0 [ms]
[OGL LOG][Proc: 0]p_non_local_coeffs: call_update: 0 [ms]
[OGL LOG][Proc: 0]p: update_local_matrix_data: 12.399 [ms]
[OGL LOG][Proc: 0]p: update_non_local_matrix_data: 0.123 [ms]
[OGL LOG][Proc: 0]p_matrix: call_update: 11.152 [ms]
[OGL LOG][Proc: 0]p_rhs: call_update: 1.891 [ms]
[OGL LOG][Preconditioner.H:121] Generate preconditioner BJ MaxBlockSize 1
[OGL LOG][Proc: 0]p: init_precond: 0.77 [ms]
[OGL LOG][StoppingCriterion.H:373] Creating stopping criterion with minIter 891 frequency 17
[OGL LOG][Proc: 0]p: generate_solver: 0.004 [ms]
[OGL LOG][Proc: 0]p: solve: 1322.55 [ms]
[OGL LOG][Proc: 0]p: copy_x_back: 2.808 [ms]
[OGL LOG][lduLduBase.H:330] 
Statistics:
	Time per iteration: 893 [mu s]
	Time per residual norm calculation: 278.000000 [mu s]
	Time per iteration and DOF: 0.111625 [ns]
	Retrieve results bandwidth 2.849000 [GByte/s]
[OGL LOG][Proc: 0]p: solve_multi_gpu: 1340.15 [ms]
BJhipGKOCG:  Solving for p, Initial residual = 0.337286, Final residual = 8.27094e-05, No Iterations 1480
[INFO] SolveP: 1356.58 [ms]
time step continuity errors : sum local = 4.21158e-09, global = 1.12506e-21, cumulative = -4.90502e-20
[INFO] ContinuityError: 15.325 [ms]
[INFO] CorrectBoundary: 0.811 [ms]
[INFO] PISOStep: 1543.86 [ms]
[INFO] TimeStep: 4072.18 [ms]
ExecutionTime = 65.83 s  ClockTime = 53 s

Time = 0.0035

Courant Number mean: 0.0531952 max: 0.484198
[INFO] MatrixAssemblyU: 78.672 [ms]
DILUPBiCGStab:  Solving for Ux, Initial residual = 0.00705352, Final residual = 0.00012629, No Iterations 5
DILUPBiCGStab:  Solving for Uy, Initial residual = 0.0176117, Final residual = 0.000281004, No Iterations 5
DILUPBiCGStab:  Solving for Uz, Initial residual = 0.0654149, Final residual = 0.00268052, No Iterations 5
[INFO] MomentumPredictor: 871.478 [ms]
[INFO] MatrixAssemblyPI: 101.476 [ms]
[INFO] AdjustPhi: 5.944 [ms]
[INFO] ConstrainPressure: 0.004 [ms]
[INFO] MatrixAssemblyPII: 29.328 [ms]
[OGL LOG][Proc: 0]: global_index_init: 0.084 [ms]
[OGL LOG][Proc: 0]p_local_coeffs: call_update: 0 [ms]
[OGL LOG][Proc: 0]p_non_local_coeffs: call_update: 0 [ms]
[OGL LOG][Proc: 0]p: update_local_matrix_data: 11.628 [ms]
[OGL LOG][Proc: 0]p: update_non_local_matrix_data: 0.109 [ms]
[OGL LOG][Proc: 0]p_matrix: call_update: 10.807 [ms]
[OGL LOG][Proc: 0]p_rhs: call_update: 1.671 [ms]
[OGL LOG][Preconditioner.H:121] Generate preconditioner BJ MaxBlockSize 1
[OGL LOG][Proc: 0]p: init_precond: 0.716 [ms]
[OGL LOG][StoppingCriterion.H:373] Creating stopping criterion with minIter 888 frequency 14
[OGL LOG][Proc: 0]p: generate_solver: 0.004 [ms]
[OGL LOG][Proc: 0]p: solve: 1347.7 [ms]
[OGL LOG][Proc: 0]p: copy_x_back: 2.805 [ms]
[OGL LOG][lduLduBase.H:330] 
Statistics:
	Time per iteration: 907 [mu s]
	Time per residual norm calculation: 274.000000 [mu s]
	Time per iteration and DOF: 0.113375 [ns]
	Retrieve results bandwidth 2.852000 [GByte/s]
[OGL LOG][Proc: 0]p: solve_multi_gpu: 1366.04 [ms]
BJhipGKOCG:  Solving for p, Initial residual = 0.342013, Final residual = 7.10565e-05, No Iterations 1485
[INFO] SolveP: 1381.63 [ms]
time step continuity errors : sum local = 3.49674e-09, global = -3.49932e-21, cumulative = -5.25495e-20
[INFO] ContinuityError: 14.477 [ms]
[INFO] CorrectBoundary: 0.494 [ms]
[INFO] PISOStep: 1568.87 [ms]
[INFO] MatrixAssemblyPI: 98.684 [ms]
[INFO] AdjustPhi: 6.751 [ms]
[INFO] ConstrainPressure: 0.005 [ms]
[INFO] MatrixAssemblyPII: 29.224 [ms]
[OGL LOG][Proc: 0]: global_index_init: 0.039 [ms]
[OGL LOG][Proc: 0]p_local_coeffs: call_update: 0 [ms]
[OGL LOG][Proc: 0]p_non_local_coeffs: call_update: 0 [ms]
[OGL LOG][Proc: 0]p: update_local_matrix_data: 11.495 [ms]
[OGL LOG][Proc: 0]p: update_non_local_matrix_data: 0.111 [ms]
[OGL LOG][Proc: 0]p_matrix: call_update: 9.867 [ms]
[OGL LOG][Proc: 0]p_rhs: call_update: 2.009 [ms]
[OGL LOG][Preconditioner.H:121] Generate preconditioner BJ MaxBlockSize 1
[OGL LOG][Proc: 0]p: init_precond: 0.546 [ms]
[OGL LOG][StoppingCriterion.H:373] Creating stopping criterion with minIter 891 frequency 14
[OGL LOG][Proc: 0]p: generate_solver: 0.003 [ms]
[OGL LOG][Proc: 0]p: solve: 1329.08 [ms]
[OGL LOG][Proc: 0]p: copy_x_back: 2.816 [ms]
[OGL LOG][lduLduBase.H:330] 
Statistics:
	Time per iteration: 895 [mu s]
	Time per residual norm calculation: 279.000000 [mu s]
	Time per iteration and DOF: 0.111875 [ns]
	Retrieve results bandwidth 2.840000 [GByte/s]
[OGL LOG][Proc: 0]p: solve_multi_gpu: 1345.39 [ms]
BJhipGKOCG:  Solving for p, Initial residual = 0.302205, Final residual = 6.40829e-05, No Iterations 1485
[INFO] SolveP: 1360.82 [ms]
time step continuity errors : sum local = 3.14091e-09, global = -2.79264e-21, cumulative = -5.53421e-20
[INFO] ContinuityError: 14.272 [ms]
[INFO] CorrectBoundary: 0.45 [ms]
[INFO] PISOStep: 1545.6 [ms]
[INFO] TimeStep: 4078.34 [ms]
ExecutionTime = 71 s  ClockTime = 57 s

Time = 0.00375

Courant Number mean: 0.0545956 max: 0.484637
[INFO] MatrixAssemblyU: 78.745 [ms]
DILUPBiCGStab:  Solving for Ux, Initial residual = 0.00646974, Final residual = 0.000110079, No Iterations 5
DILUPBiCGStab:  Solving for Uy, Initial residual = 0.0157812, Final residual = 0.000234418, No Iterations 5
DILUPBiCGStab:  Solving for Uz, Initial residual = 0.0566795, Final residual = 0.00245154, No Iterations 5
[INFO] MomentumPredictor: 870.804 [ms]
[INFO] MatrixAssemblyPI: 101.498 [ms]
[INFO] AdjustPhi: 5.802 [ms]
[INFO] ConstrainPressure: 0.004 [ms]
[INFO] MatrixAssemblyPII: 29.247 [ms]
[OGL LOG][Proc: 0]: global_index_init: 0.034 [ms]
[OGL LOG][Proc: 0]p_local_coeffs: call_update: 0 [ms]
[OGL LOG][Proc: 0]p_non_local_coeffs: call_update: 0 [ms]
[OGL LOG][Proc: 0]p: update_local_matrix_data: 11.477 [ms]
[OGL LOG][Proc: 0]p: update_non_local_matrix_data: 0.12 [ms]
[OGL LOG][Proc: 0]p_matrix: call_update: 8.962 [ms]
[OGL LOG][Proc: 0]p_rhs: call_update: 2.328 [ms]
[OGL LOG][Preconditioner.H:121] Generate preconditioner BJ MaxBlockSize 1
[OGL LOG][Proc: 0]p: init_precond: 1.108 [ms]
[OGL LOG][StoppingCriterion.H:373] Creating stopping criterion with minIter 891 frequency 14
[OGL LOG][Proc: 0]p: generate_solver: 0.003 [ms]
[OGL LOG][Proc: 0]p: solve: 1320.08 [ms]
[OGL LOG][Proc: 0]p: copy_x_back: 2.8 [ms]
[OGL LOG][lduLduBase.H:330] 
Statistics:
	Time per iteration: 897 [mu s]
	Time per residual norm calculation: 276.000000 [mu s]
	Time per iteration and DOF: 0.112125 [ns]
	Retrieve results bandwidth 2.857000 [GByte/s]
[OGL LOG][Proc: 0]p: solve_multi_gpu: 1336.3 [ms]
BJhipGKOCG:  Solving for p, Initial residual = 0.30971, Final residual = 9.50285e-05, No Iterations 1471
[INFO] SolveP: 1351.82 [ms]
time step continuity errors : sum local = 4.48978e-09, global = -2.52726e-21, cumulative = -5.78694e-20
[INFO] ContinuityError: 14.784 [ms]
[INFO] CorrectBoundary: 0.687 [ms]
[INFO] PISOStep: 1538.91 [ms]
[INFO] MatrixAssemblyPI: 98.675 [ms]
[INFO] AdjustPhi: 7.251 [ms]
[INFO] ConstrainPressure: 0.004 [ms]
[INFO] MatrixAssemblyPII: 29.05 [ms]
[OGL LOG][Proc: 0]: global_index_init: 0.097 [ms]
[OGL LOG][Proc: 0]p_local_coeffs: call_update: 0 [ms]
[OGL LOG][Proc: 0]p_non_local_coeffs: call_update: 0 [ms]
[OGL LOG][Proc: 0]p: update_local_matrix_data: 11.438 [ms]
[OGL LOG][Proc: 0]p: update_non_local_matrix_data: 0.113 [ms]
[OGL LOG][Proc: 0]p_matrix: call_update: 10.213 [ms]
[OGL LOG][Proc: 0]p_rhs: call_update: 1.488 [ms]
[OGL LOG][Preconditioner.H:121] Generate preconditioner BJ MaxBlockSize 1
[OGL LOG][Proc: 0]p: init_precond: 0.493 [ms]
[OGL LOG][StoppingCriterion.H:373] Creating stopping criterion with minIter 882 frequency 14
[OGL LOG][Proc: 0]p: generate_solver: 0.003 [ms]
[OGL LOG][Proc: 0]p: solve: 1331.91 [ms]
[OGL LOG][Proc: 0]p: copy_x_back: 2.835 [ms]
[OGL LOG][lduLduBase.H:330] 
Statistics:
	Time per iteration: 905 [mu s]
	Time per residual norm calculation: 280.000000 [mu s]
	Time per iteration and DOF: 0.113125 [ns]
	Retrieve results bandwidth 2.821000 [GByte/s]
[OGL LOG][Proc: 0]p: solve_multi_gpu: 1348.15 [ms]
BJhipGKOCG:  Solving for p, Initial residual = 0.271531, Final residual = 8.64849e-05, No Iterations 1471
[INFO] SolveP: 1363.54 [ms]
time step continuity errors : sum local = 4.09088e-09, global = -1.76561e-21, cumulative = -5.9635e-20
[INFO] ContinuityError: 14.834 [ms]
[INFO] CorrectBoundary: 0.808 [ms]
[INFO] PISOStep: 1549.85 [ms]
[INFO] TimeStep: 4052.07 [ms]
ExecutionTime = 76.15 s  ClockTime = 62 s

Time = 0.004

Courant Number mean: 0.0559077 max: 0.485102
[INFO] MatrixAssemblyU: 79.152 [ms]
DILUPBiCGStab:  Solving for Ux, Initial residual = 0.00594781, Final residual = 9.66522e-05, No Iterations 5
DILUPBiCGStab:  Solving for Uy, Initial residual = 0.014487, Final residual = 0.000196453, No Iterations 5
DILUPBiCGStab:  Solving for Uz, Initial residual = 0.0499254, Final residual = 0.00214107, No Iterations 5
[INFO] MomentumPredictor: 867.626 [ms]
[INFO] MatrixAssemblyPI: 101.437 [ms]
[INFO] AdjustPhi: 5.866 [ms]
[INFO] ConstrainPressure: 0.004 [ms]
[INFO] MatrixAssemblyPII: 29.554 [ms]
[OGL LOG][Proc: 0]: global_index_init: 0.108 [ms]
[OGL LOG][Proc: 0]p_local_coeffs: call_update: 0 [ms]
[OGL LOG][Proc: 0]p_non_local_coeffs: call_update: 0 [ms]
[OGL LOG][Proc: 0]p: update_local_matrix_data: 11.541 [ms]
[OGL LOG][Proc: 0]p: update_non_local_matrix_data: 0.108 [ms]
[OGL LOG][Proc: 0]p_matrix: call_update: 10.071 [ms]
[OGL LOG][Proc: 0]p_rhs: call_update: 2.04 [ms]
[OGL LOG][Preconditioner.H:121] Generate preconditioner BJ MaxBlockSize 1
[OGL LOG][Proc: 0]p: init_precond: 0.54 [ms]
[OGL LOG][StoppingCriterion.H:373] Creating stopping criterion with minIter 882 frequency 14
[OGL LOG][Proc: 0]p: generate_solver: 0.002 [ms]
[OGL LOG][Proc: 0]p: solve: 1252.86 [ms]
[OGL LOG][Proc: 0]p: copy_x_back: 3.031 [ms]
[OGL LOG][lduLduBase.H:330] 
Statistics:
	Time per iteration: 894 [mu s]
	Time per residual norm calculation: 275.000000 [mu s]
	Time per iteration and DOF: 0.111750 [ns]
	Retrieve results bandwidth 2.639000 [GByte/s]
[OGL LOG][Proc: 0]p: solve_multi_gpu: 1269.86 [ms]
BJhipGKOCG:  Solving for p, Initial residual = 0.279354, Final residual = 8.03684e-05, No Iterations 1401
[INFO] SolveP: 1285.38 [ms]
time step continuity errors : sum local = 3.66016e-09, global = -5.61639e-21, cumulative = -6.52514e-20
[INFO] ContinuityError: 14.962 [ms]
[INFO] CorrectBoundary: 0.526 [ms]
[INFO] PISOStep: 1472.55 [ms]
[INFO] MatrixAssemblyPI: 98.865 [ms]
[INFO] AdjustPhi: 6.084 [ms]
[INFO] ConstrainPressure: 0.004 [ms]
[INFO] MatrixAssemblyPII: 29.665 [ms]
[OGL LOG][Proc: 0]: global_index_init: 0.055 [ms]
[OGL LOG][Proc: 0]p_local_coeffs: call_update: 0 [ms]
[OGL LOG][Proc: 0]p_non_local_coeffs: call_update: 0 [ms]
[OGL LOG][Proc: 0]p: update_local_matrix_data: 11.705 [ms]
[OGL LOG][Proc: 0]p: update_non_local_matrix_data: 0.111 [ms]
[OGL LOG][Proc: 0]p_matrix: call_update: 10.38 [ms]
[OGL LOG][Proc: 0]p_rhs: call_update: 2.114 [ms]
[OGL LOG][Preconditioner.H:121] Generate preconditioner BJ MaxBlockSize 1
[OGL LOG][Proc: 0]p: init_precond: 0.598 [ms]
[OGL LOG][StoppingCriterion.H:373] Creating stopping criterion with minIter 840 frequency 13
[OGL LOG][Proc: 0]p: generate_solver: 0.003 [ms]
[OGL LOG][Proc: 0]p: solve: 1278.77 [ms]
[OGL LOG][Proc: 0]p: copy_x_back: 2.805 [ms]
[OGL LOG][lduLduBase.H:330] 
Statistics:
	Time per iteration: 901 [mu s]
	Time per residual norm calculation: 275.000000 [mu s]
	Time per iteration and DOF: 0.112625 [ns]
	Retrieve results bandwidth 2.852000 [GByte/s]
[OGL LOG][Proc: 0]p: solve_multi_gpu: 1295.79 [ms]
BJhipGKOCG:  Solving for p, Initial residual = 0.246054, Final residual = 8.3591e-05, No Iterations 1418
[INFO] SolveP: 1311.65 [ms]
time step continuity errors : sum local = 3.79445e-09, global = -5.99847e-21, cumulative = -7.12499e-20
[INFO] ContinuityError: 14.817 [ms]
[INFO] CorrectBoundary: 0.399 [ms]
[INFO] PISOStep: 1496.87 [ms]
[INFO] TimeStep: 3929.73 [ms]
ExecutionTime = 81.12 s  ClockTime = 65 s

Time = 0.00425

Courant Number mean: 0.0571444 max: 0.485457
[INFO] MatrixAssemblyU: 79.459 [ms]
DILUPBiCGStab:  Solving for Ux, Initial residual = 0.00550199, Final residual = 8.50645e-05, No Iterations 5
DILUPBiCGStab:  Solving for Uy, Initial residual = 0.0131984, Final residual = 0.00017444, No Iterations 5
DILUPBiCGStab:  Solving for Uz, Initial residual = 0.0441993, Final residual = 0.00194904, No Iterations 5
[INFO] MomentumPredictor: 869.09 [ms]
[INFO] MatrixAssemblyPI: 103.935 [ms]
[INFO] AdjustPhi: 6.994 [ms]
[INFO] ConstrainPressure: 0.004 [ms]
[INFO] MatrixAssemblyPII: 29.584 [ms]
[OGL LOG][Proc: 0]: global_index_init: 0.036 [ms]
[OGL LOG][Proc: 0]p_local_coeffs: call_update: 0 [ms]
[OGL LOG][Proc: 0]p_non_local_coeffs: call_update: 0 [ms]
[OGL LOG][Proc: 0]p: update_local_matrix_data: 11.437 [ms]
[OGL LOG][Proc: 0]p: update_non_local_matrix_data: 0.113 [ms]
[OGL LOG][Proc: 0]p_matrix: call_update: 13.521 [ms]
[OGL LOG][Proc: 0]p_rhs: call_update: 0.939 [ms]
[OGL LOG][Preconditioner.H:121] Generate preconditioner BJ MaxBlockSize 1
[OGL LOG][Proc: 0]p: init_precond: 0.51 [ms]
[OGL LOG][StoppingCriterion.H:373] Creating stopping criterion with minIter 850 frequency 13
[OGL LOG][Proc: 0]p: generate_solver: 0.005 [ms]
[OGL LOG][Proc: 0]p: solve: 797.061 [ms]
[OGL LOG][Proc: 0]p: copy_x_back: 2.719 [ms]
[OGL LOG][lduLduBase.H:330] 
Statistics:
	Time per iteration: 927 [mu s]
	Time per residual norm calculation: 292.000000 [mu s]
	Time per iteration and DOF: 0.115875 [ns]
	Retrieve results bandwidth 2.942000 [GByte/s]
[OGL LOG][Proc: 0]p: solve_multi_gpu: 815.882 [ms]
BJhipGKOCG:  Solving for p, Initial residual = 0.249333, Final residual = 4.16053e-05, No Iterations 859
[INFO] SolveP: 831.466 [ms]
time step continuity errors : sum local = 2.00144e-09, global = -4.39058e-21, cumulative = -7.56405e-20
[INFO] ContinuityError: 14.773 [ms]
[INFO] CorrectBoundary: 0.789 [ms]
[INFO] PISOStep: 1022.85 [ms]
[INFO] MatrixAssemblyPI: 99.323 [ms]
[INFO] AdjustPhi: 5.717 [ms]
[INFO] ConstrainPressure: 0.004 [ms]
[INFO] MatrixAssemblyPII: 29.036 [ms]
[OGL LOG][Proc: 0]: global_index_init: 0.034 [ms]
[OGL LOG][Proc: 0]p_local_coeffs: call_update: 0 [ms]
[OGL LOG][Proc: 0]p_non_local_coeffs: call_update: 0 [ms]
[OGL LOG][Proc: 0]p: update_local_matrix_data: 11.564 [ms]
[OGL LOG][Proc: 0]p: update_non_local_matrix_data: 0.109 [ms]
[OGL LOG][Proc: 0]p_matrix: call_update: 17.482 [ms]
[OGL LOG][Proc: 0]p_rhs: call_update: 2.118 [ms]
[OGL LOG][Preconditioner.H:121] Generate preconditioner BJ MaxBlockSize 1
[OGL LOG][Proc: 0]p: init_precond: 0.543 [ms]
[OGL LOG][StoppingCriterion.H:373] Creating stopping criterion with minIter 515 frequency 10
[OGL LOG][Proc: 0]p: generate_solver: 0.004 [ms]
[OGL LOG][Proc: 0]p: solve: 649.755 [ms]
[OGL LOG][Proc: 0]p: copy_x_back: 2.966 [ms]
[OGL LOG][lduLduBase.H:330] 
Statistics:
	Time per iteration: 968 [mu s]
	Time per residual norm calculation: 276.000000 [mu s]
	Time per iteration and DOF: 0.121000 [ns]
	Retrieve results bandwidth 2.697000 [GByte/s]
[OGL LOG][Proc: 0]p: solve_multi_gpu: 673.905 [ms]
BJhipGKOCG:  Solving for p, Initial residual = 0.21801, Final residual = 9.06529e-05, No Iterations 671
[INFO] SolveP: 689.43 [ms]
time step continuity errors : sum local = 4.09366e-09, global = -1.65884e-21, cumulative = -7.72993e-20
[INFO] ContinuityError: 14.229 [ms]
[INFO] CorrectBoundary: 0.39 [ms]
[INFO] PISOStep: 874.896 [ms]
[INFO] TimeStep: 2859.66 [ms]
ExecutionTime = 84.54 s  ClockTime = 68 s

Time = 0.0045

Courant Number mean: 0.0583118 max: 0.48583
[INFO] MatrixAssemblyU: 79.256 [ms]
DILUPBiCGStab:  Solving for Ux, Initial residual = 0.00511418, Final residual = 7.58641e-05, No Iterations 5
DILUPBiCGStab:  Solving for Uy, Initial residual = 0.0122357, Final residual = 0.000149603, No Iterations 5
DILUPBiCGStab:  Solving for Uz, Initial residual = 0.0392348, Final residual = 0.00167368, No Iterations 5
[INFO] MomentumPredictor: 864.248 [ms]
[INFO] MatrixAssemblyPI: 101.816 [ms]
[INFO] AdjustPhi: 5.689 [ms]
[INFO] ConstrainPressure: 0.004 [ms]
[INFO] MatrixAssemblyPII: 29.298 [ms]
[OGL LOG][Proc: 0]: global_index_init: 0.183 [ms]
[OGL LOG][Proc: 0]p_local_coeffs: call_update: 0 [ms]
[OGL LOG][Proc: 0]p_non_local_coeffs: call_update: 0 [ms]
[OGL LOG][Proc: 0]p: update_local_matrix_data: 11.511 [ms]
[OGL LOG][Proc: 0]p: update_non_local_matrix_data: 0.108 [ms]
[OGL LOG][Proc: 0]p_matrix: call_update: 9.799 [ms]
[OGL LOG][Proc: 0]p_rhs: call_update: 2.488 [ms]
[OGL LOG][Preconditioner.H:121] Generate preconditioner BJ MaxBlockSize 1
[OGL LOG][Proc: 0]p: init_precond: 0.589 [ms]
[OGL LOG][StoppingCriterion.H:373] Creating stopping criterion with minIter 402 frequency 9
[OGL LOG][Proc: 0]p: generate_solver: 0.003 [ms]
[OGL LOG][Proc: 0]p: solve: 667.065 [ms]
[OGL LOG][Proc: 0]p: copy_x_back: 2.773 [ms]
[OGL LOG][lduLduBase.H:330] 
Statistics:
	Time per iteration: 936 [mu s]
	Time per residual norm calculation: 275.000000 [mu s]
	Time per iteration and DOF: 0.117000 [ns]
	Retrieve results bandwidth 2.884000 [GByte/s]
[OGL LOG][Proc: 0]p: solve_multi_gpu: 683.685 [ms]
BJhipGKOCG:  Solving for p, Initial residual = 0.226199, Final residual = 9.18775e-05, No Iterations 712
[INFO] SolveP: 699.202 [ms]
time step continuity errors : sum local = 4.32486e-09, global = -8.91546e-22, cumulative = -7.81908e-20
[INFO] ContinuityError: 15.168 [ms]
[INFO] CorrectBoundary: 0.939 [ms]
[INFO] PISOStep: 886.915 [ms]
[INFO] MatrixAssemblyPI: 98.896 [ms]
[INFO] AdjustPhi: 6.784 [ms]
[INFO] ConstrainPressure: 0.005 [ms]
[INFO] MatrixAssemblyPII: 29.483 [ms]
[OGL LOG][Proc: 0]: global_index_init: 0.098 [ms]
[OGL LOG][Proc: 0]p_local_coeffs: call_update: 0 [ms]
[OGL LOG][Proc: 0]p_non_local_coeffs: call_update: 0 [ms]
[OGL LOG][Proc: 0]p: update_local_matrix_data: 11.649 [ms]
[OGL LOG][Proc: 0]p: update_non_local_matrix_data: 0.11 [ms]
[OGL LOG][Proc: 0]p_matrix: call_update: 10.018 [ms]
[OGL LOG][Proc: 0]p_rhs: call_update: 2.051 [ms]
[OGL LOG][Preconditioner.H:121] Generate preconditioner BJ MaxBlockSize 1
[OGL LOG][Proc: 0]p: init_precond: 0.545 [ms]
[OGL LOG][StoppingCriterion.H:373] Creating stopping criterion with minIter 427 frequency 9
[OGL LOG][Proc: 0]p: generate_solver: 0.003 [ms]
[OGL LOG][Proc: 0]p: solve: 645.181 [ms]
[OGL LOG][Proc: 0]p: copy_x_back: 2.81 [ms]
[OGL LOG][lduLduBase.H:330] 
Statistics:
	Time per iteration: 929 [mu s]
	Time per residual norm calculation: 276.000000 [mu s]
	Time per iteration and DOF: 0.116125 [ns]
	Retrieve results bandwidth 2.846000 [GByte/s]
[OGL LOG][Proc: 0]p: solve_multi_gpu: 661.544 [ms]
BJhipGKOCG:  Solving for p, Initial residual = 0.198554, Final residual = 9.25981e-05, No Iterations 694
[INFO] SolveP: 677.149 [ms]
time step continuity errors : sum local = 4.07373e-09, global = -2.39705e-21, cumulative = -8.05879e-20
[INFO] ContinuityError: 14.592 [ms]
[INFO] CorrectBoundary: 0.499 [ms]
[INFO] PISOStep: 862.465 [ms]
[INFO] TimeStep: 2706.3 [ms]
ExecutionTime = 87.76 s  ClockTime = 71 s

Time = 0.00475

Courant Number mean: 0.0594174 max: 0.486127
[INFO] MatrixAssemblyU: 78.082 [ms]
DILUPBiCGStab:  Solving for Ux, Initial residual = 0.00476062, Final residual = 6.72634e-05, No Iterations 5
DILUPBiCGStab:  Solving for Uy, Initial residual = 0.011305, Final residual = 0.000137646, No Iterations 5
DILUPBiCGStab:  Solving for Uz, Initial residual = 0.0356266, Final residual = 0.00150857, No Iterations 5
[INFO] MomentumPredictor: 870.738 [ms]
[INFO] MatrixAssemblyPI: 103.186 [ms]
[INFO] AdjustPhi: 7.416 [ms]
[INFO] ConstrainPressure: 0.004 [ms]
[INFO] MatrixAssemblyPII: 29.337 [ms]
[OGL LOG][Proc: 0]: global_index_init: 0.036 [ms]
[OGL LOG][Proc: 0]p_local_coeffs: call_update: 0 [ms]
[OGL LOG][Proc: 0]p_non_local_coeffs: call_update: 0 [ms]
[OGL LOG][Proc: 0]p: update_local_matrix_data: 12.366 [ms]
[OGL LOG][Proc: 0]p: update_non_local_matrix_data: 0.107 [ms]
[OGL LOG][Proc: 0]p_matrix: call_update: 10.3 [ms]
[OGL LOG][Proc: 0]p_rhs: call_update: 2.168 [ms]
[OGL LOG][Preconditioner.H:121] Generate preconditioner BJ MaxBlockSize 1
[OGL LOG][Proc: 0]p: init_precond: 0.55 [ms]
[OGL LOG][StoppingCriterion.H:373] Creating stopping criterion with minIter 416 frequency 9
[OGL LOG][Proc: 0]p: generate_solver: 0.005 [ms]
[OGL LOG][Proc: 0]p: solve: 1333.26 [ms]
[OGL LOG][Proc: 0]p: copy_x_back: 2.8 [ms]
[OGL LOG][lduLduBase.H:330] 
Statistics:
	Time per iteration: 908 [mu s]
	Time per residual norm calculation: 273.000000 [mu s]
	Time per iteration and DOF: 0.113500 [ns]
	Retrieve results bandwidth 2.857000 [GByte/s]
[OGL LOG][Proc: 0]p: solve_multi_gpu: 1350.01 [ms]
BJhipGKOCG:  Solving for p, Initial residual = 0.200709, Final residual = 8.305e-05, No Iterations 1468
[INFO] SolveP: 1366.33 [ms]
time step continuity errors : sum local = 3.53252e-09, global = -1.81469e-21, cumulative = -8.24026e-20
[INFO] ContinuityError: 14.805 [ms]
[INFO] CorrectBoundary: 0.465 [ms]
[INFO] PISOStep: 1556.41 [ms]
[INFO] MatrixAssemblyPI: 99.103 [ms]
[INFO] AdjustPhi: 6.437 [ms]
[INFO] ConstrainPressure: 0.004 [ms]
[INFO] MatrixAssemblyPII: 29.881 [ms]
[OGL LOG][Proc: 0]: global_index_init: 0.038 [ms]
[OGL LOG][Proc: 0]p_local_coeffs: call_update: 0 [ms]
[OGL LOG][Proc: 0]p_non_local_coeffs: call_update: 0 [ms]
[OGL LOG][Proc: 0]p: update_local_matrix_data: 11.542 [ms]
[OGL LOG][Proc: 0]p: update_non_local_matrix_data: 0.105 [ms]
[OGL LOG][Proc: 0]p_matrix: call_update: 9.572 [ms]
[OGL LOG][Proc: 0]p_rhs: call_update: 2.349 [ms]
[OGL LOG][Preconditioner.H:121] Generate preconditioner BJ MaxBlockSize 1
[OGL LOG][Proc: 0]p: init_precond: 0.967 [ms]
[OGL LOG][StoppingCriterion.H:373] Creating stopping criterion with minIter 880 frequency 13
[OGL LOG][Proc: 0]p: generate_solver: 0.003 [ms]
[OGL LOG][Proc: 0]p: solve: 1317.15 [ms]
[OGL LOG][Proc: 0]p: copy_x_back: 2.768 [ms]
[OGL LOG][lduLduBase.H:330] 
Statistics:
	Time per iteration: 896 [mu s]
	Time per residual norm calculation: 274.000000 [mu s]
	Time per iteration and DOF: 0.112000 [ns]
	Retrieve results bandwidth 2.890000 [GByte/s]
[OGL LOG][Proc: 0]p: solve_multi_gpu: 1334 [ms]
BJhipGKOCG:  Solving for p, Initial residual = 0.175097, Final residual = 6.87895e-05, No Iterations 1470
[INFO] SolveP: 1349.51 [ms]
time step continuity errors : sum local = 2.92751e-09, global = -3.56666e-21, cumulative = -8.59692e-20
[INFO] ContinuityError: 14.591 [ms]
[INFO] CorrectBoundary: 0.917 [ms]
[INFO] PISOStep: 1534.91 [ms]
[INFO] TimeStep: 4053.73 [ms]
ExecutionTime = 92.89 s  ClockTime = 75 s

Time = 0.005

Courant Number mean: 0.0604662 max: 0.486433
[INFO] MatrixAssemblyU: 78.353 [ms]
DILUPBiCGStab:  Solving for Ux, Initial residual = 0.00446403, Final residual = 6.06487e-05, No Iterations 5
DILUPBiCGStab:  Solving for Uy, Initial residual = 0.0105602, Final residual = 0.000120913, No Iterations 5
DILUPBiCGStab:  Solving for Uz, Initial residual = 0.0324004, Final residual = 0.00129463, No Iterations 5
[INFO] MomentumPredictor: 871.422 [ms]
[INFO] MatrixAssemblyPI: 101.943 [ms]
[INFO] AdjustPhi: 6.345 [ms]
[INFO] ConstrainPressure: 0.004 [ms]
[INFO] MatrixAssemblyPII: 29.178 [ms]
[OGL LOG][Proc: 0]: global_index_init: 0.039 [ms]
[OGL LOG][Proc: 0]p_local_coeffs: call_update: 0 [ms]
[OGL LOG][Proc: 0]p_non_local_coeffs: call_update: 0 [ms]
[OGL LOG][Proc: 0]p: update_local_matrix_data: 11.526 [ms]
[OGL LOG][Proc: 0]p: update_non_local_matrix_data: 0.118 [ms]
[OGL LOG][Proc: 0]p_matrix: call_update: 9.316 [ms]
[OGL LOG][Proc: 0]p_rhs: call_update: 2.447 [ms]
[OGL LOG][Preconditioner.H:121] Generate preconditioner BJ MaxBlockSize 1
[OGL LOG][Proc: 0]p: init_precond: 1.087 [ms]
[OGL LOG][StoppingCriterion.H:373] Creating stopping criterion with minIter 882 frequency 14
[OGL LOG][Proc: 0]p: generate_solver: 0.005 [ms]
[OGL LOG][Proc: 0]p: solve: 1315.7 [ms]
[OGL LOG][Proc: 0]p: copy_x_back: 2.784 [ms]
[OGL LOG][lduLduBase.H:330] 
Statistics:
	Time per iteration: 894 [mu s]
	Time per residual norm calculation: 293.000000 [mu s]
	Time per iteration and DOF: 0.111750 [ns]
	Retrieve results bandwidth 2.873000 [GByte/s]
[OGL LOG][Proc: 0]p: solve_multi_gpu: 1332.68 [ms]
BJhipGKOCG:  Solving for p, Initial residual = 0.18235, Final residual = 6.71958e-05, No Iterations 1471
[INFO] SolveP: 1348.21 [ms]
time step continuity errors : sum local = 2.76099e-09, global = -2.18836e-21, cumulative = -8.81576e-20
[INFO] ContinuityError: 15.239 [ms]
[INFO] CorrectBoundary: 0.505 [ms]
[INFO] PISOStep: 1536.46 [ms]
[INFO] MatrixAssemblyPI: 99.155 [ms]
[INFO] AdjustPhi: 6.472 [ms]
[INFO] ConstrainPressure: 0.004 [ms]
[INFO] MatrixAssemblyPII: 29.673 [ms]
[OGL LOG][Proc: 0]: global_index_init: 0.046 [ms]
[OGL LOG][Proc: 0]p_local_coeffs: call_update: 0 [ms]
[OGL LOG][Proc: 0]p_non_local_coeffs: call_update: 0 [ms]
[OGL LOG][Proc: 0]p: update_local_matrix_data: 11.618 [ms]
[OGL LOG][Proc: 0]p: update_non_local_matrix_data: 0.109 [ms]
[OGL LOG][Proc: 0]p_matrix: call_update: 9.618 [ms]
[OGL LOG][Proc: 0]p_rhs: call_update: 2.389 [ms]
[OGL LOG][Preconditioner.H:121] Generate preconditioner BJ MaxBlockSize 1
[OGL LOG][Proc: 0]p: init_precond: 0.568 [ms]
[OGL LOG][StoppingCriterion.H:373] Creating stopping criterion with minIter 882 frequency 14
[OGL LOG][Proc: 0]p: generate_solver: 0.003 [ms]
[OGL LOG][Proc: 0]p: solve: 1315.9 [ms]
[OGL LOG][Proc: 0]p: copy_x_back: 2.902 [ms]
[OGL LOG][lduLduBase.H:330] 
Statistics:
	Time per iteration: 894 [mu s]
	Time per residual norm calculation: 275.000000 [mu s]
	Time per iteration and DOF: 0.111750 [ns]
	Retrieve results bandwidth 2.756000 [GByte/s]
[OGL LOG][Proc: 0]p: solve_multi_gpu: 1332.8 [ms]
BJhipGKOCG:  Solving for p, Initial residual = 0.159741, Final residual = 5.87212e-05, No Iterations 1471
[INFO] SolveP: 1348.41 [ms]
time step continuity errors : sum local = 2.40868e-09, global = -3.72094e-21, cumulative = -9.18785e-20
[INFO] ContinuityError: 15.072 [ms]
[INFO] CorrectBoundary: 0.388 [ms]
[INFO] PISOStep: 1534.05 [ms]
[INFO] TimeStep: 4033.64 [ms]
ExecutionTime = 98.01 s  ClockTime = 79 s

End

Finalising parallel run
