/*---------------------------------------------------------------------------*\
| =========                 |                                                 |
| \\      /  F ield         | OpenFOAM: The Open Source CFD Toolbox           |
|  \\    /   O peration     | Version:  2312                                  |
|   \\  /    A nd           | Website:  www.openfoam.com                      |
|    \\/     M anipulation  |                                                 |
\*---------------------------------------------------------------------------*/
Build  : a46b310f-20240104 OPENFOAM=2312 version=v2312
Arch   : "LSB;label=32;scalar=64"
Exec   : icoFoam -parallel -case /hppfs/scratch/0B/di35yan/lidDriven3D/workspace/92f79cc65b79f93f285763ff86146261/case
Date   : Feb 19 2024
Time   : 06:37:10
Host   : i20r02c04s06
PID    : 185512
I/O    : uncollated
Case   : /hppfs/scratch/0B/di35yan/lidDriven3D/workspace/92f79cc65b79f93f285763ff86146261/case
nProcs : 1120
Hosts  :
(
    (i20r02c04s06 112)
    (i20r02c04s08 112)
    (i20r02c04s10 112)
    (i20r02c05s04 112)
    (i20r02c05s06 112)
    (i20r02c05s08 112)
    (i20r02c05s10 112)
    (i20r02c06s02 112)
    (i20r02c06s06 112)
    (i20r02c06s08 112)
)
Pstream initialized with:
    floatTransfer      : false
    nProcsSimpleSum    : 0
    nonBlockingExchange: 0 (tuning: 0)
    exchange algorithm : 0
    commsType          : nonBlocking
    polling iterations : 0
trapFpe: Floating point exception trapping enabled (FOAM_SIGFPE).
fileModificationChecking : Monitoring run-time modified files using timeStampMaster (fileModificationSkew 5, maxFileModificationPolls 20)
allowSystemOperations : Allowing user-supplied system call operations

// * * * * * * * * * * * * * * * * * * * * * * * * * * * * * * * * * * * * * //
Create time

--> FOAM Warning : 
    From void* Foam::dlLibraryTable::openLibrary(const Foam::fileName&, bool)
    in file db/dynamicLibrary/dlLibraryTable/dlLibraryTable.C at line 188
    Could not load "libpetscFoam.so"
libpetscFoam.so: cannot open shared object file: No such file or directory
Create mesh for time = 0


PISO: Operating solver in PISO mode

Reading transportProperties

Reading field p

Reading field U

Reading/calculating face flux field phi


Starting time loop

Time = 0.0005

Courant Number mean: 8.62851e-18 max: 8.67362e-15
[INFO] MatrixAssemblyU: 2.337 [ms]
DILUPBiCGStab:  Solving for Ux, Initial residual = 1, Final residual = 0.00737005, No Iterations 5
DILUPBiCGStab:  Solving for Uy:  solution singularity
DILUPBiCGStab:  Solving for Uz:  solution singularity
[INFO] MomentumPredictor: 5.68 [ms]
[INFO] MatrixAssemblyPI: 1.172 [ms]
[INFO] AdjustPhi: 1.954 [ms]
[INFO] ConstrainPressure: 0.002 [ms]
[INFO] MatrixAssemblyPII: 0.175 [ms]
nonePCG:  Solving for p, Initial residual = 1, Final residual = 9.72454e-05, No Iterations 793
[INFO] SolveP: 55.93 [ms]
time step continuity errors : sum local = 2.04909e-08, global = 6.47607e-21, cumulative = 6.47607e-21
[INFO] ContinuityError: 12.89 [ms]
[INFO] CorrectBoundary: 0.038 [ms]
[INFO] PISOStep: 73.258 [ms]
[INFO] MatrixAssemblyPI: 0.205 [ms]
[INFO] AdjustPhi: 0.189 [ms]
[INFO] ConstrainPressure: 0 [ms]
[INFO] MatrixAssemblyPII: 0.057 [ms]
nonePCG:  Solving for p, Initial residual = 0.721008, Final residual = 9.9533e-05, No Iterations 781
[INFO] SolveP: 41.051 [ms]
time step continuity errors : sum local = 2.79129e-08, global = 5.84395e-21, cumulative = 1.232e-20
[INFO] ContinuityError: 1.666 [ms]
[INFO] CorrectBoundary: 0.022 [ms]
[INFO] PISOStep: 43.364 [ms]
[INFO] TimeStep: 125.805 [ms]
ExecutionTime = 11.51 s  ClockTime = 15 s

Time = 0.001

Courant Number mean: 0.0213185 max: 0.377
[INFO] MatrixAssemblyU: 0.106 [ms]
DILUPBiCGStab:  Solving for Ux, Initial residual = 0.149714, Final residual = 0.00370557, No Iterations 5
DILUPBiCGStab:  Solving for Uy, Initial residual = 0.369548, Final residual = 0.00782887, No Iterations 5
DILUPBiCGStab:  Solving for Uz, Initial residual = 0.987693, Final residual = 0.021126, No Iterations 5
[INFO] MomentumPredictor: 2.324 [ms]
[INFO] MatrixAssemblyPI: 0.158 [ms]
[INFO] AdjustPhi: 0.216 [ms]
[INFO] ConstrainPressure: 0 [ms]
[INFO] MatrixAssemblyPII: 0.046 [ms]
nonePCG:  Solving for p, Initial residual = 0.695937, Final residual = 9.48204e-05, No Iterations 776
[INFO] SolveP: 40.316 [ms]
time step continuity errors : sum local = 3.06395e-08, global = 7.63185e-21, cumulative = 1.99519e-20
[INFO] ContinuityError: 0.176 [ms]
[INFO] CorrectBoundary: 0.026 [ms]
[INFO] PISOStep: 41.231 [ms]
[INFO] MatrixAssemblyPI: 0.17 [ms]
[INFO] AdjustPhi: 0.174 [ms]
[INFO] ConstrainPressure: 0 [ms]
[INFO] MatrixAssemblyPII: 0.047 [ms]
nonePCG:  Solving for p, Initial residual = 0.618218, Final residual = 9.43943e-05, No Iterations 774
[INFO] SolveP: 39.5 [ms]
time step continuity errors : sum local = 3.11623e-08, global = 4.56887e-21, cumulative = 2.45207e-20
[INFO] ContinuityError: 0.193 [ms]
[INFO] CorrectBoundary: 0.028 [ms]
[INFO] PISOStep: 40.28 [ms]
[INFO] TimeStep: 84.323 [ms]
ExecutionTime = 11.59 s  ClockTime = 16 s

Time = 0.0015

Courant Number mean: 0.0322381 max: 0.440784
[INFO] MatrixAssemblyU: 0.09 [ms]
DILUPBiCGStab:  Solving for Ux, Initial residual = 0.0534225, Final residual = 0.00120188, No Iterations 5
DILUPBiCGStab:  Solving for Uy, Initial residual = 0.126046, Final residual = 0.00178672, No Iterations 5
DILUPBiCGStab:  Solving for Uz, Initial residual = 0.563959, Final residual = 0.010862, No Iterations 5
[INFO] MomentumPredictor: 2.211 [ms]
[INFO] MatrixAssemblyPI: 0.141 [ms]
[INFO] AdjustPhi: 0.196 [ms]
[INFO] ConstrainPressure: 0 [ms]
[INFO] MatrixAssemblyPII: 0.05 [ms]
nonePCG:  Solving for p, Initial residual = 0.634597, Final residual = 9.80702e-05, No Iterations 768
[INFO] SolveP: 42.079 [ms]
time step continuity errors : sum local = 2.27138e-08, global = 3.31246e-21, cumulative = 2.78332e-20
[INFO] ContinuityError: 0.176 [ms]
[INFO] CorrectBoundary: 0.021 [ms]
[INFO] PISOStep: 42.808 [ms]
[INFO] MatrixAssemblyPI: 0.188 [ms]
[INFO] AdjustPhi: 0.19 [ms]
[INFO] ConstrainPressure: 0.001 [ms]
[INFO] MatrixAssemblyPII: 0.051 [ms]
nonePCG:  Solving for p, Initial residual = 0.580031, Final residual = 9.38357e-05, No Iterations 767
[INFO] SolveP: 39.858 [ms]
time step continuity errors : sum local = 2.10447e-08, global = 8.11294e-21, cumulative = 3.59461e-20
[INFO] ContinuityError: 0.164 [ms]
[INFO] CorrectBoundary: 0.022 [ms]
[INFO] PISOStep: 40.634 [ms]
[INFO] TimeStep: 85.876 [ms]
ExecutionTime = 11.68 s  ClockTime = 16 s

Time = 0.002

Courant Number mean: 0.0386248 max: 0.452683
[INFO] MatrixAssemblyU: 0.091 [ms]
DILUPBiCGStab:  Solving for Ux, Initial residual = 0.0321826, Final residual = 0.000634002, No Iterations 5
DILUPBiCGStab:  Solving for Uy, Initial residual = 0.0820481, Final residual = 0.00141645, No Iterations 5
DILUPBiCGStab:  Solving for Uz, Initial residual = 0.275873, Final residual = 0.00461392, No Iterations 5
[INFO] MomentumPredictor: 2.232 [ms]
[INFO] MatrixAssemblyPI: 0.323 [ms]
[INFO] AdjustPhi: 0.066 [ms]
[INFO] ConstrainPressure: 0.001 [ms]
[INFO] MatrixAssemblyPII: 0.082 [ms]
nonePCG:  Solving for p, Initial residual = 0.417248, Final residual = 9.68729e-05, No Iterations 762
[INFO] SolveP: 39.072 [ms]
time step continuity errors : sum local = 1.91389e-08, global = 8.74686e-21, cumulative = 4.4693e-20
[INFO] ContinuityError: 0.167 [ms]
[INFO] CorrectBoundary: 0.021 [ms]
[INFO] PISOStep: 39.879 [ms]
[INFO] MatrixAssemblyPI: 0.165 [ms]
[INFO] AdjustPhi: 0.153 [ms]
[INFO] ConstrainPressure: 0.001 [ms]
[INFO] MatrixAssemblyPII: 0.049 [ms]
nonePCG:  Solving for p, Initial residual = 0.3549, Final residual = 9.85878e-05, No Iterations 759
[INFO] SolveP: 38.599 [ms]
time step continuity errors : sum local = 1.96598e-08, global = 1.70526e-20, cumulative = 6.17456e-20
[INFO] ContinuityError: 0.168 [ms]
[INFO] CorrectBoundary: 0.025 [ms]
[INFO] PISOStep: 39.301 [ms]
[INFO] TimeStep: 81.624 [ms]
ExecutionTime = 11.76 s  ClockTime = 16 s

Time = 0.0025

Courant Number mean: 0.043674 max: 0.459419
[INFO] MatrixAssemblyU: 0.092 [ms]
DILUPBiCGStab:  Solving for Ux, Initial residual = 0.0237737, Final residual = 0.00040057, No Iterations 5
DILUPBiCGStab:  Solving for Uy, Initial residual = 0.0522534, Final residual = 0.000616573, No Iterations 5
DILUPBiCGStab:  Solving for Uz, Initial residual = 0.104467, Final residual = 0.00192578, No Iterations 5
[INFO] MomentumPredictor: 2.189 [ms]
[INFO] MatrixAssemblyPI: 0.151 [ms]
[INFO] AdjustPhi: 0.118 [ms]
[INFO] ConstrainPressure: 0 [ms]
[INFO] MatrixAssemblyPII: 0.045 [ms]
nonePCG:  Solving for p, Initial residual = 0.31713, Final residual = 9.88751e-05, No Iterations 362
[INFO] SolveP: 18.805 [ms]
time step continuity errors : sum local = 1.81107e-08, global = 1.14426e-20, cumulative = 7.31882e-20
[INFO] ContinuityError: 0.157 [ms]
[INFO] CorrectBoundary: 0.013 [ms]
[INFO] PISOStep: 19.452 [ms]
[INFO] MatrixAssemblyPI: 0.158 [ms]
[INFO] AdjustPhi: 0.148 [ms]
[INFO] ConstrainPressure: 0 [ms]
[INFO] MatrixAssemblyPII: 0.045 [ms]
nonePCG:  Solving for p, Initial residual = 0.272536, Final residual = 9.96054e-05, No Iterations 356
[INFO] SolveP: 18.97 [ms]
time step continuity errors : sum local = 1.66257e-08, global = 2.1104e-20, cumulative = 9.42921e-20
[INFO] ContinuityError: 0.162 [ms]
[INFO] CorrectBoundary: 0.019 [ms]
[INFO] PISOStep: 19.628 [ms]
[INFO] TimeStep: 41.489 [ms]
ExecutionTime = 11.8 s  ClockTime = 16 s

Time = 0.003

Courant Number mean: 0.0477243 max: 0.463676
[INFO] MatrixAssemblyU: 0.083 [ms]
DILUPBiCGStab:  Solving for Ux, Initial residual = 0.0180953, Final residual = 0.000256896, No Iterations 5
DILUPBiCGStab:  Solving for Uy, Initial residual = 0.0406276, Final residual = 0.000449662, No Iterations 5
DILUPBiCGStab:  Solving for Uz, Initial residual = 0.0885968, Final residual = 0.00155284, No Iterations 5
[INFO] MomentumPredictor: 2.319 [ms]
[INFO] MatrixAssemblyPI: 0.145 [ms]
[INFO] AdjustPhi: 0.19 [ms]
[INFO] ConstrainPressure: 0 [ms]
[INFO] MatrixAssemblyPII: 0.043 [ms]
nonePCG:  Solving for p, Initial residual = 0.196751, Final residual = 9.90651e-05, No Iterations 346
[INFO] SolveP: 17.65 [ms]
time step continuity errors : sum local = 1.54693e-08, global = 1.43967e-20, cumulative = 1.08689e-19
[INFO] ContinuityError: 0.119 [ms]
[INFO] CorrectBoundary: 0.022 [ms]
[INFO] PISOStep: 18.302 [ms]
[INFO] MatrixAssemblyPI: 0.146 [ms]
[INFO] AdjustPhi: 0.168 [ms]
[INFO] ConstrainPressure: 0.001 [ms]
[INFO] MatrixAssemblyPII: 0.042 [ms]
nonePCG:  Solving for p, Initial residual = 0.164285, Final residual = 9.53888e-05, No Iterations 345
[INFO] SolveP: 17.415 [ms]
time step continuity errors : sum local = 1.50092e-08, global = 1.17726e-20, cumulative = 1.20461e-19
[INFO] ContinuityError: 0.163 [ms]
[INFO] CorrectBoundary: 0.017 [ms]
[INFO] PISOStep: 18.074 [ms]
[INFO] TimeStep: 38.9 [ms]
ExecutionTime = 11.84 s  ClockTime = 16 s

Time = 0.0035

Courant Number mean: 0.0511475 max: 0.466587
[INFO] MatrixAssemblyU: 0.079 [ms]
DILUPBiCGStab:  Solving for Ux, Initial residual = 0.014825, Final residual = 0.000184578, No Iterations 5
DILUPBiCGStab:  Solving for Uy, Initial residual = 0.0321476, Final residual = 0.000294521, No Iterations 5
DILUPBiCGStab:  Solving for Uz, Initial residual = 0.0609261, Final residual = 0.00083114, No Iterations 5
[INFO] MomentumPredictor: 2.193 [ms]
[INFO] MatrixAssemblyPI: 0.141 [ms]
[INFO] AdjustPhi: 0.118 [ms]
[INFO] ConstrainPressure: 0 [ms]
[INFO] MatrixAssemblyPII: 0.042 [ms]
nonePCG:  Solving for p, Initial residual = 0.137382, Final residual = 9.95756e-05, No Iterations 361
[INFO] SolveP: 18.332 [ms]
time step continuity errors : sum local = 1.71157e-08, global = 1.44541e-20, cumulative = 1.34915e-19
[INFO] ContinuityError: 0.118 [ms]
[INFO] CorrectBoundary: 0.01 [ms]
[INFO] PISOStep: 18.89 [ms]
[INFO] MatrixAssemblyPI: 0.152 [ms]
[INFO] AdjustPhi: 0.167 [ms]
[INFO] ConstrainPressure: 0 [ms]
[INFO] MatrixAssemblyPII: 0.043 [ms]
nonePCG:  Solving for p, Initial residual = 0.115766, Final residual = 9.95004e-05, No Iterations 334
[INFO] SolveP: 17.07 [ms]
time step continuity errors : sum local = 1.55906e-08, global = 1.32792e-20, cumulative = 1.48195e-19
[INFO] ContinuityError: 0.123 [ms]
[INFO] CorrectBoundary: 0.009 [ms]
[INFO] PISOStep: 17.689 [ms]
[INFO] TimeStep: 38.969 [ms]
ExecutionTime = 11.88 s  ClockTime = 16 s

Time = 0.004

Courant Number mean: 0.0541021 max: 0.468809
[INFO] MatrixAssemblyU: 0.079 [ms]
DILUPBiCGStab:  Solving for Ux, Initial residual = 0.0124306, Final residual = 0.000144798, No Iterations 5
DILUPBiCGStab:  Solving for Uy, Initial residual = 0.0268273, Final residual = 0.000226342, No Iterations 5
DILUPBiCGStab:  Solving for Uz, Initial residual = 0.0532997, Final residual = 0.000685006, No Iterations 5
[INFO] MomentumPredictor: 2.196 [ms]
[INFO] MatrixAssemblyPI: 0.141 [ms]
[INFO] AdjustPhi: 0.119 [ms]
[INFO] ConstrainPressure: 0 [ms]
[INFO] MatrixAssemblyPII: 0.041 [ms]
nonePCG:  Solving for p, Initial residual = 0.0894617, Final residual = 9.99784e-05, No Iterations 332
[INFO] SolveP: 18.111 [ms]
time step continuity errors : sum local = 1.54698e-08, global = 2.17673e-20, cumulative = 1.69962e-19
[INFO] ContinuityError: 0.161 [ms]
[INFO] CorrectBoundary: 0.011 [ms]
[INFO] PISOStep: 18.702 [ms]
[INFO] MatrixAssemblyPI: 0.152 [ms]
[INFO] AdjustPhi: 0.184 [ms]
[INFO] ConstrainPressure: 0 [ms]
[INFO] MatrixAssemblyPII: 0.04 [ms]
nonePCG:  Solving for p, Initial residual = 0.0746374, Final residual = 9.87999e-05, No Iterations 326
[INFO] SolveP: 16.562 [ms]
time step continuity errors : sum local = 1.43737e-08, global = 6.42805e-21, cumulative = 1.7639e-19
[INFO] ContinuityError: 0.143 [ms]
[INFO] CorrectBoundary: 0.014 [ms]
[INFO] PISOStep: 17.22 [ms]
[INFO] TimeStep: 38.321 [ms]
ExecutionTime = 11.92 s  ClockTime = 16 s

Time = 0.0045

Courant Number mean: 0.0566928 max: 0.47053
[INFO] MatrixAssemblyU: 0.078 [ms]
DILUPBiCGStab:  Solving for Ux, Initial residual = 0.0106755, Final residual = 0.000116355, No Iterations 5
DILUPBiCGStab:  Solving for Uy, Initial residual = 0.0229099, Final residual = 0.000182975, No Iterations 5
DILUPBiCGStab:  Solving for Uz, Initial residual = 0.0453335, Final residual = 0.000521088, No Iterations 5
[INFO] MomentumPredictor: 3.212 [ms]
[INFO] MatrixAssemblyPI: 0.141 [ms]
[INFO] AdjustPhi: 0.219 [ms]
[INFO] ConstrainPressure: 0 [ms]
[INFO] MatrixAssemblyPII: 0.042 [ms]
nonePCG:  Solving for p, Initial residual = 0.065065, Final residual = 9.87975e-05, No Iterations 701
[INFO] SolveP: 36 [ms]
time step continuity errors : sum local = 1.41033e-08, global = 1.61533e-20, cumulative = 1.92543e-19
[INFO] ContinuityError: 0.185 [ms]
[INFO] CorrectBoundary: 0.025 [ms]
[INFO] PISOStep: 36.743 [ms]
[INFO] MatrixAssemblyPI: 0.157 [ms]
[INFO] AdjustPhi: 0.172 [ms]
[INFO] ConstrainPressure: 0 [ms]
[INFO] MatrixAssemblyPII: 0.042 [ms]
nonePCG:  Solving for p, Initial residual = 0.0548882, Final residual = 9.66697e-05, No Iterations 698
[INFO] SolveP: 36.249 [ms]
time step continuity errors : sum local = 1.38044e-08, global = 1.96809e-20, cumulative = 2.12224e-19
[INFO] ContinuityError: 0.191 [ms]
[INFO] CorrectBoundary: 0.026 [ms]
[INFO] PISOStep: 36.981 [ms]
[INFO] TimeStep: 77.133 [ms]
ExecutionTime = 11.99 s  ClockTime = 16 s

Time = 0.005

Courant Number mean: 0.0590031 max: 0.471936
[INFO] MatrixAssemblyU: 0.087 [ms]
DILUPBiCGStab:  Solving for Ux, Initial residual = 0.00933663, Final residual = 9.92263e-05, No Iterations 5
DILUPBiCGStab:  Solving for Uy, Initial residual = 0.0199206, Final residual = 0.000150758, No Iterations 5
DILUPBiCGStab:  Solving for Uz, Initial residual = 0.0395003, Final residual = 0.000428422, No Iterations 5
[INFO] MomentumPredictor: 2.377 [ms]
[INFO] MatrixAssemblyPI: 0.146 [ms]
[INFO] AdjustPhi: 0.121 [ms]
[INFO] ConstrainPressure: 0 [ms]
[INFO] MatrixAssemblyPII: 0.043 [ms]
nonePCG:  Solving for p, Initial residual = 0.0438455, Final residual = 9.89483e-05, No Iterations 316
[INFO] SolveP: 17.113 [ms]
time step continuity errors : sum local = 1.4395e-08, global = 1.32323e-20, cumulative = 2.25456e-19
[INFO] ContinuityError: 0.197 [ms]
[INFO] CorrectBoundary: 0.036 [ms]
[INFO] PISOStep: 17.782 [ms]
[INFO] MatrixAssemblyPI: 0.149 [ms]
[INFO] AdjustPhi: 0.171 [ms]
[INFO] ConstrainPressure: 0 [ms]
[INFO] MatrixAssemblyPII: 0.045 [ms]
nonePCG:  Solving for p, Initial residual = 0.037446, Final residual = 9.82831e-05, No Iterations 314
[INFO] SolveP: 16.879 [ms]
time step continuity errors : sum local = 1.40982e-08, global = 1.91528e-20, cumulative = 2.44609e-19
[INFO] ContinuityError: 0.182 [ms]
[INFO] CorrectBoundary: 0.014 [ms]
[INFO] PISOStep: 17.607 [ms]
[INFO] TimeStep: 37.977 [ms]
ExecutionTime = 12.03 s  ClockTime = 16 s

Time = 0.0055

Courant Number mean: 0.061075 max: 0.473095
[INFO] MatrixAssemblyU: 0.078 [ms]
DILUPBiCGStab:  Solving for Ux, Initial residual = 0.00824364, Final residual = 8.44234e-05, No Iterations 5
DILUPBiCGStab:  Solving for Uy, Initial residual = 0.0176134, Final residual = 0.000130154, No Iterations 5
DILUPBiCGStab:  Solving for Uz, Initial residual = 0.0351862, Final residual = 0.000356151, No Iterations 5
[INFO] MomentumPredictor: 2.307 [ms]
[INFO] MatrixAssemblyPI: 0.133 [ms]
[INFO] AdjustPhi: 0.142 [ms]
[INFO] ConstrainPressure: 0 [ms]
[INFO] MatrixAssemblyPII: 0.04 [ms]
nonePCG:  Solving for p, Initial residual = 0.0343783, Final residual = 9.75808e-05, No Iterations 313
[INFO] SolveP: 16.31 [ms]
time step continuity errors : sum local = 1.4843e-08, global = 1.52537e-20, cumulative = 2.59863e-19
[INFO] ContinuityError: 0.17 [ms]
[INFO] CorrectBoundary: 0.016 [ms]
[INFO] PISOStep: 16.93 [ms]
[INFO] MatrixAssemblyPI: 0.147 [ms]
[INFO] AdjustPhi: 0.154 [ms]
[INFO] ConstrainPressure: 0 [ms]
[INFO] MatrixAssemblyPII: 0.044 [ms]
nonePCG:  Solving for p, Initial residual = 0.0295939, Final residual = 9.95653e-05, No Iterations 309
[INFO] SolveP: 15.836 [ms]
time step continuity errors : sum local = 1.43005e-08, global = 9.96903e-21, cumulative = 2.69832e-19
[INFO] ContinuityError: 0.141 [ms]
[INFO] CorrectBoundary: 0.007 [ms]
[INFO] PISOStep: 16.458 [ms]
[INFO] TimeStep: 35.886 [ms]
ExecutionTime = 12.07 s  ClockTime = 16 s

Time = 0.006

Courant Number mean: 0.062959 max: 0.474081
[INFO] MatrixAssemblyU: 0.079 [ms]
DILUPBiCGStab:  Solving for Ux, Initial residual = 0.00737344, Final residual = 7.38035e-05, No Iterations 5
DILUPBiCGStab:  Solving for Uy, Initial residual = 0.0157248, Final residual = 0.00011364, No Iterations 5
DILUPBiCGStab:  Solving for Uz, Initial residual = 0.0316093, Final residual = 0.000317645, No Iterations 5
[INFO] MomentumPredictor: 2.211 [ms]
[INFO] MatrixAssemblyPI: 0.142 [ms]
[INFO] AdjustPhi: 0.133 [ms]
[INFO] ConstrainPressure: 0 [ms]
[INFO] MatrixAssemblyPII: 0.04 [ms]
nonePCG:  Solving for p, Initial residual = 0.0250554, Final residual = 9.93093e-05, No Iterations 313
[INFO] SolveP: 16.741 [ms]
time step continuity errors : sum local = 1.48999e-08, global = 1.03498e-20, cumulative = 2.80182e-19
[INFO] ContinuityError: 0.165 [ms]
[INFO] CorrectBoundary: 0.016 [ms]
[INFO] PISOStep: 17.368 [ms]
[INFO] MatrixAssemblyPI: 0.151 [ms]
[INFO] AdjustPhi: 0.127 [ms]
[INFO] ConstrainPressure: 0 [ms]
[INFO] MatrixAssemblyPII: 0.042 [ms]
nonePCG:  Solving for p, Initial residual = 0.0222143, Final residual = 9.83649e-05, No Iterations 309
[INFO] SolveP: 16.397 [ms]
time step continuity errors : sum local = 1.41142e-08, global = 2.45042e-20, cumulative = 3.04686e-19
[INFO] ContinuityError: 0.167 [ms]
[INFO] CorrectBoundary: 0.009 [ms]
[INFO] PISOStep: 17.026 [ms]
[INFO] TimeStep: 36.805 [ms]
ExecutionTime = 12.1 s  ClockTime = 16 s

Time = 0.0065

Courant Number mean: 0.0646746 max: 0.474924
[INFO] MatrixAssemblyU: 0.077 [ms]
DILUPBiCGStab:  Solving for Ux, Initial residual = 0.00664162, Final residual = 6.45741e-05, No Iterations 5
DILUPBiCGStab:  Solving for Uy, Initial residual = 0.0141707, Final residual = 0.000101022, No Iterations 5
DILUPBiCGStab:  Solving for Uz, Initial residual = 0.0290497, Final residual = 0.000281208, No Iterations 5
[INFO] MomentumPredictor: 2.242 [ms]
[INFO] MatrixAssemblyPI: 0.138 [ms]
[INFO] AdjustPhi: 0.124 [ms]
[INFO] ConstrainPressure: 0 [ms]
[INFO] MatrixAssemblyPII: 0.04 [ms]
nonePCG:  Solving for p, Initial residual = 0.0209319, Final residual = 9.93255e-05, No Iterations 321
[INFO] SolveP: 18 [ms]
time step continuity errors : sum local = 1.57548e-08, global = 2.21873e-20, cumulative = 3.26873e-19
[INFO] ContinuityError: 0.164 [ms]
[INFO] CorrectBoundary: 0.016 [ms]
[INFO] PISOStep: 18.598 [ms]
[INFO] MatrixAssemblyPI: 0.147 [ms]
[INFO] AdjustPhi: 0.169 [ms]
[INFO] ConstrainPressure: 0 [ms]
[INFO] MatrixAssemblyPII: 0.042 [ms]
nonePCG:  Solving for p, Initial residual = 0.0186973, Final residual = 9.97846e-05, No Iterations 309
[INFO] SolveP: 16.166 [ms]
time step continuity errors : sum local = 1.45285e-08, global = 1.40831e-20, cumulative = 3.40956e-19
[INFO] ContinuityError: 0.185 [ms]
[INFO] CorrectBoundary: 0.011 [ms]
[INFO] PISOStep: 16.838 [ms]
[INFO] TimeStep: 37.873 [ms]
ExecutionTime = 12.14 s  ClockTime = 16 s

Time = 0.007

Courant Number mean: 0.0662515 max: 0.475661
[INFO] MatrixAssemblyU: 0.076 [ms]
DILUPBiCGStab:  Solving for Ux, Initial residual = 0.00602607, Final residual = 5.73045e-05, No Iterations 5
DILUPBiCGStab:  Solving for Uy, Initial residual = 0.0128787, Final residual = 9.08283e-05, No Iterations 5
DILUPBiCGStab:  Solving for Uz, Initial residual = 0.0265555, Final residual = 0.000259481, No Iterations 5
[INFO] MomentumPredictor: 2.178 [ms]
[INFO] MatrixAssemblyPI: 0.132 [ms]
[INFO] AdjustPhi: 0.133 [ms]
[INFO] ConstrainPressure: 0 [ms]
[INFO] MatrixAssemblyPII: 0.041 [ms]
nonePCG:  Solving for p, Initial residual = 0.0168122, Final residual = 9.94254e-05, No Iterations 327
[INFO] SolveP: 18.263 [ms]
time step continuity errors : sum local = 1.58709e-08, global = 9.18843e-21, cumulative = 3.50145e-19
[INFO] ContinuityError: 0.182 [ms]
[INFO] CorrectBoundary: 0.008 [ms]
[INFO] PISOStep: 18.879 [ms]
[INFO] MatrixAssemblyPI: 0.148 [ms]
[INFO] AdjustPhi: 0.183 [ms]
[INFO] ConstrainPressure: 0 [ms]
[INFO] MatrixAssemblyPII: 0.039 [ms]
nonePCG:  Solving for p, Initial residual = 0.0154379, Final residual = 9.76023e-05, No Iterations 309
[INFO] SolveP: 16.222 [ms]
time step continuity errors : sum local = 1.42249e-08, global = 1.09579e-20, cumulative = 3.61103e-19
[INFO] ContinuityError: 0.163 [ms]
[INFO] CorrectBoundary: 0.009 [ms]
[INFO] PISOStep: 16.889 [ms]
[INFO] TimeStep: 38.142 [ms]
ExecutionTime = 12.18 s  ClockTime = 16 s

Time = 0.0075

Courant Number mean: 0.0677079 max: 0.476307
[INFO] MatrixAssemblyU: 0.076 [ms]
DILUPBiCGStab:  Solving for Ux, Initial residual = 0.0055069, Final residual = 5.13039e-05, No Iterations 5
DILUPBiCGStab:  Solving for Uy, Initial residual = 0.011753, Final residual = 8.25783e-05, No Iterations 5
DILUPBiCGStab:  Solving for Uz, Initial residual = 0.0248626, Final residual = 0.000242244, No Iterations 5
[INFO] MomentumPredictor: 2.676 [ms]
[INFO] MatrixAssemblyPI: 0.139 [ms]
[INFO] AdjustPhi: 0.176 [ms]
[INFO] ConstrainPressure: 0 [ms]
[INFO] MatrixAssemblyPII: 0.04 [ms]
nonePCG:  Solving for p, Initial residual = 0.0148357, Final residual = 9.7248e-05, No Iterations 691
[INFO] SolveP: 39.342 [ms]
time step continuity errors : sum local = 1.36055e-08, global = 2.53879e-20, cumulative = 3.86491e-19
[INFO] ContinuityError: 0.2 [ms]
[INFO] CorrectBoundary: 0.031 [ms]
[INFO] PISOStep: 40.063 [ms]
[INFO] MatrixAssemblyPI: 0.149 [ms]
[INFO] AdjustPhi: 0.201 [ms]
[INFO] ConstrainPressure: 0 [ms]
[INFO] MatrixAssemblyPII: 0.046 [ms]
nonePCG:  Solving for p, Initial residual = 0.0137165, Final residual = 9.91484e-05, No Iterations 688
[INFO] SolveP: 38.362 [ms]
time step continuity errors : sum local = 1.38767e-08, global = 1.83936e-20, cumulative = 4.04884e-19
[INFO] ContinuityError: 0.192 [ms]
[INFO] CorrectBoundary: 0.031 [ms]
[INFO] PISOStep: 39.119 [ms]
[INFO] TimeStep: 82.064 [ms]
ExecutionTime = 12.26 s  ClockTime = 16 s

Time = 0.008

Courant Number mean: 0.069054 max: 0.476881
[INFO] MatrixAssemblyU: 0.084 [ms]
DILUPBiCGStab:  Solving for Ux, Initial residual = 0.00504933, Final residual = 4.64653e-05, No Iterations 5
DILUPBiCGStab:  Solving for Uy, Initial residual = 0.0107964, Final residual = 7.516e-05, No Iterations 5
DILUPBiCGStab:  Solving for Uz, Initial residual = 0.0224352, Final residual = 0.000212479, No Iterations 5
[INFO] MomentumPredictor: 2.669 [ms]
[INFO] MatrixAssemblyPI: 0.141 [ms]
[INFO] AdjustPhi: 0.585 [ms]
[INFO] ConstrainPressure: 0 [ms]
[INFO] MatrixAssemblyPII: 0.041 [ms]
nonePCG:  Solving for p, Initial residual = 0.0129753, Final residual = 9.92543e-05, No Iterations 300
[INFO] SolveP: 17.544 [ms]
time step continuity errors : sum local = 1.48482e-08, global = 1.33124e-20, cumulative = 4.18197e-19
[INFO] ContinuityError: 0.163 [ms]
[INFO] CorrectBoundary: 0.02 [ms]
[INFO] PISOStep: 18.719 [ms]
[INFO] MatrixAssemblyPI: 0.145 [ms]
[INFO] AdjustPhi: 0.148 [ms]
[INFO] ConstrainPressure: 0.001 [ms]
[INFO] MatrixAssemblyPII: 0.039 [ms]
nonePCG:  Solving for p, Initial residual = 0.0121954, Final residual = 9.78344e-05, No Iterations 293
[INFO] SolveP: 17.371 [ms]
time step continuity errors : sum local = 1.40638e-08, global = 1.90355e-20, cumulative = 4.37232e-19
[INFO] ContinuityError: 0.181 [ms]
[INFO] CorrectBoundary: 0.017 [ms]
[INFO] PISOStep: 18.023 [ms]
[INFO] TimeStep: 39.613 [ms]
ExecutionTime = 12.3 s  ClockTime = 16 s

Time = 0.0085

Courant Number mean: 0.0703064 max: 0.477394
[INFO] MatrixAssemblyU: 0.079 [ms]
DILUPBiCGStab:  Solving for Ux, Initial residual = 0.00464887, Final residual = 4.24467e-05, No Iterations 5
DILUPBiCGStab:  Solving for Uy, Initial residual = 0.00996275, Final residual = 6.90348e-05, No Iterations 5
DILUPBiCGStab:  Solving for Uz, Initial residual = 0.0207666, Final residual = 0.00018927, No Iterations 5
[INFO] MomentumPredictor: 2.125 [ms]
[INFO] MatrixAssemblyPI: 0.147 [ms]
[INFO] AdjustPhi: 0.129 [ms]
[INFO] ConstrainPressure: 0 [ms]
[INFO] MatrixAssemblyPII: 0.043 [ms]
nonePCG:  Solving for p, Initial residual = 0.0114968, Final residual = 9.78413e-05, No Iterations 304
[INFO] SolveP: 16.225 [ms]
time step continuity errors : sum local = 1.50299e-08, global = 3.10544e-20, cumulative = 4.68287e-19
[INFO] ContinuityError: 0.172 [ms]
[INFO] CorrectBoundary: 0.017 [ms]
[INFO] PISOStep: 16.851 [ms]
[INFO] MatrixAssemblyPI: 0.142 [ms]
[INFO] AdjustPhi: 0.669 [ms]
[INFO] ConstrainPressure: 0 [ms]
[INFO] MatrixAssemblyPII: 0.042 [ms]
nonePCG:  Solving for p, Initial residual = 0.0108533, Final residual = 9.99011e-05, No Iterations 292
[INFO] SolveP: 18.153 [ms]
time step continuity errors : sum local = 1.43018e-08, global = 2.29813e-20, cumulative = 4.91268e-19
[INFO] ContinuityError: 0.183 [ms]
[INFO] CorrectBoundary: 0.015 [ms]
[INFO] PISOStep: 19.322 [ms]
[INFO] TimeStep: 38.5 [ms]
ExecutionTime = 12.34 s  ClockTime = 16 s

Time = 0.009

Courant Number mean: 0.0714768 max: 0.477857
[INFO] MatrixAssemblyU: 0.077 [ms]
DILUPBiCGStab:  Solving for Ux, Initial residual = 0.00429721, Final residual = 3.91423e-05, No Iterations 5
DILUPBiCGStab:  Solving for Uy, Initial residual = 0.00924006, Final residual = 6.37697e-05, No Iterations 5
DILUPBiCGStab:  Solving for Uz, Initial residual = 0.0193389, Final residual = 0.000178445, No Iterations 5
[INFO] MomentumPredictor: 2.655 [ms]
[INFO] MatrixAssemblyPI: 0.137 [ms]
[INFO] AdjustPhi: 0.217 [ms]
[INFO] ConstrainPressure: 0 [ms]
[INFO] MatrixAssemblyPII: 0.04 [ms]
nonePCG:  Solving for p, Initial residual = 0.0105225, Final residual = 9.92847e-05, No Iterations 309
[INFO] SolveP: 17.829 [ms]
time step continuity errors : sum local = 1.56582e-08, global = 2.17666e-20, cumulative = 5.13035e-19
[INFO] ContinuityError: 0.171 [ms]
[INFO] CorrectBoundary: 0.024 [ms]
[INFO] PISOStep: 18.542 [ms]
[INFO] MatrixAssemblyPI: 0.134 [ms]
[INFO] AdjustPhi: 0.169 [ms]
[INFO] ConstrainPressure: 0 [ms]
[INFO] MatrixAssemblyPII: 0.04 [ms]
nonePCG:  Solving for p, Initial residual = 0.0100068, Final residual = 9.99615e-05, No Iterations 300
[INFO] SolveP: 16.323 [ms]
time step continuity errors : sum local = 1.45773e-08, global = 2.56956e-21, cumulative = 5.15604e-19
[INFO] ContinuityError: 0.183 [ms]
[INFO] CorrectBoundary: 0.012 [ms]
[INFO] PISOStep: 16.991 [ms]
[INFO] TimeStep: 38.417 [ms]
ExecutionTime = 12.38 s  ClockTime = 16 s

Time = 0.0095

Courant Number mean: 0.0725703 max: 0.478274
[INFO] MatrixAssemblyU: 0.076 [ms]
DILUPBiCGStab:  Solving for Ux, Initial residual = 0.00399519, Final residual = 3.62975e-05, No Iterations 5
DILUPBiCGStab:  Solving for Uy, Initial residual = 0.008579, Final residual = 5.93572e-05, No Iterations 5
DILUPBiCGStab:  Solving for Uz, Initial residual = 0.0183683, Final residual = 0.000171063, No Iterations 5
[INFO] MomentumPredictor: 2.622 [ms]
[INFO] MatrixAssemblyPI: 0.142 [ms]
[INFO] AdjustPhi: 0.168 [ms]
[INFO] ConstrainPressure: 0 [ms]
[INFO] MatrixAssemblyPII: 0.044 [ms]
nonePCG:  Solving for p, Initial residual = 0.0098258, Final residual = 9.99438e-05, No Iterations 683
[INFO] SolveP: 39.224 [ms]
time step continuity errors : sum local = 1.39882e-08, global = -1.89448e-21, cumulative = 5.1371e-19
[INFO] ContinuityError: 0.186 [ms]
[INFO] CorrectBoundary: 0.042 [ms]
[INFO] PISOStep: 39.932 [ms]
[INFO] MatrixAssemblyPI: 0.15 [ms]
[INFO] AdjustPhi: 0.199 [ms]
[INFO] ConstrainPressure: 0 [ms]
[INFO] MatrixAssemblyPII: 0.042 [ms]
nonePCG:  Solving for p, Initial residual = 0.00937485, Final residual = 9.69877e-05, No Iterations 681
[INFO] SolveP: 40.365 [ms]
time step continuity errors : sum local = 1.35787e-08, global = 1.96429e-21, cumulative = 5.15674e-19
[INFO] ContinuityError: 0.208 [ms]
[INFO] CorrectBoundary: 0.026 [ms]
[INFO] PISOStep: 41.134 [ms]
[INFO] TimeStep: 83.891 [ms]
ExecutionTime = 12.46 s  ClockTime = 16 s

Time = 0.01

Courant Number mean: 0.0735938 max: 0.478654
[INFO] MatrixAssemblyU: 0.088 [ms]
DILUPBiCGStab:  Solving for Ux, Initial residual = 0.00371631, Final residual = 3.37427e-05, No Iterations 5
DILUPBiCGStab:  Solving for Uy, Initial residual = 0.00799937, Final residual = 5.50074e-05, No Iterations 5
DILUPBiCGStab:  Solving for Uz, Initial residual = 0.0168593, Final residual = 0.000153389, No Iterations 5
[INFO] MomentumPredictor: 2.539 [ms]
[INFO] MatrixAssemblyPI: 0.144 [ms]
[INFO] AdjustPhi: 0.215 [ms]
[INFO] ConstrainPressure: 0 [ms]
[INFO] MatrixAssemblyPII: 0.042 [ms]
nonePCG:  Solving for p, Initial residual = 0.00918142, Final residual = 9.90574e-05, No Iterations 289
[INFO] SolveP: 17.123 [ms]
time step continuity errors : sum local = 1.46892e-08, global = 1.37248e-20, cumulative = 5.29399e-19
[INFO] ContinuityError: 0.194 [ms]
[INFO] CorrectBoundary: 0.015 [ms]
[INFO] PISOStep: 17.855 [ms]
[INFO] MatrixAssemblyPI: 0.144 [ms]
[INFO] AdjustPhi: 0.205 [ms]
[INFO] ConstrainPressure: 0 [ms]
[INFO] MatrixAssemblyPII: 0.041 [ms]
nonePCG:  Solving for p, Initial residual = 0.00876836, Final residual = 9.92965e-05, No Iterations 284
[INFO] SolveP: 17.285 [ms]
time step continuity errors : sum local = 1.42147e-08, global = 1.22547e-20, cumulative = 5.41653e-19
[INFO] ContinuityError: 0.179 [ms]
[INFO] CorrectBoundary: 0.02 [ms]
[INFO] PISOStep: 17.996 [ms]
[INFO] TimeStep: 38.598 [ms]
ExecutionTime = 12.51 s  ClockTime = 16 s

End

Finalising parallel run
