/*---------------------------------------------------------------------------*\
| =========                 |                                                 |
| \\      /  F ield         | OpenFOAM: The Open Source CFD Toolbox           |
|  \\    /   O peration     | Version:  2306                                  |
|   \\  /    A nd           | Website:  www.openfoam.com                      |
|    \\/     M anipulation  |                                                 |
\*---------------------------------------------------------------------------*/
Build  : a6e826bd55-20230630 OPENFOAM=2306 version=v2306
Arch   : "LSB;label=32;scalar=64"
Exec   : icoFoam -parallel -case /tmp/lidDrivenCavity/workspace/b7a0d576ac5e1149dfbb4031151766e2/case
Date   : Dec 16 2023
Time   : 17:52:39
Host   : nla-gpu2.ianm.kit.edu
PID    : 181309
I/O    : uncollated
Case   : /tmp/lidDrivenCavity/workspace/b7a0d576ac5e1149dfbb4031151766e2/case
nProcs : 8
Hosts  :
(
    (nla-gpu2.ianm.kit.edu 8)
)
Pstream initialized with:
    floatTransfer      : false
    nProcsSimpleSum    : 0
    nonBlockingExchange: 0 (tuning: 0)
    exchange algorithm : -1
    commsType          : nonBlocking
    polling iterations : 0
trapFpe: Floating point exception trapping enabled (FOAM_SIGFPE).
fileModificationChecking : Monitoring run-time modified files using timeStampMaster (fileModificationSkew 5, maxFileModificationPolls 20)
allowSystemOperations : Allowing user-supplied system call operations

// * * * * * * * * * * * * * * * * * * * * * * * * * * * * * * * * * * * * * //
Create time

--> FOAM Warning : 
    From void* Foam::dlLibraryTable::openLibrary(const Foam::fileName&, bool)
    in file db/dynamicLibrary/dlLibraryTable/dlLibraryTable.C at line 188
    Could not load "libpetscFoam.so"
libpetscFoam.so: cannot open shared object file: No such file or directory
Create mesh for time = 0


PISO: Operating solver in PISO mode

Reading transportProperties

Reading field p

Reading field U

Reading/calculating face flux field phi


Starting time loop

Time = 0.000125

Courant Number mean: 8.02505e-18 max: 4.85723e-14
[INFO] MatrixAssemblyU: 817.829 [ms]
DILUPBiCGStab:  Solving for Ux, Initial residual = 1, Final residual = 0.0211815, No Iterations 5
DILUPBiCGStab:  Solving for Uy:  solution singularity
DILUPBiCGStab:  Solving for Uz:  solution singularity
[INFO] MomentumPredictor: 3864.05 [ms]
[INFO] MatrixAssemblyPI: 827.607 [ms]
[INFO] AdjustPhi: 60.434 [ms]
[INFO] ConstrainPressure: 0.009 [ms]
[INFO] MatrixAssemblyPII: 231.352 [ms]
nonePCG:  Solving for p, Initial residual = 1, Final residual = 9.8936e-05, No Iterations 3251
[INFO] SolveP: 349605 [ms]
time step continuity errors : sum local = 2.51561e-09, global = -2.75362e-21, cumulative = -2.75362e-21
[INFO] ContinuityError: 120.546 [ms]
[INFO] CorrectBoundary: 4.34 [ms]
[INFO] PISOStep: 351109 [ms]
[INFO] MatrixAssemblyPI: 789.482 [ms]
[INFO] AdjustPhi: 50.082 [ms]
[INFO] ConstrainPressure: 0.004 [ms]
[INFO] MatrixAssemblyPII: 232.154 [ms]
nonePCG:  Solving for p, Initial residual = 0.822352, Final residual = 9.85948e-05, No Iterations 3236
[INFO] SolveP: 347524 [ms]
time step continuity errors : sum local = 3.01927e-09, global = 4.52595e-22, cumulative = -2.30102e-21
[INFO] ContinuityError: 115.209 [ms]
[INFO] CorrectBoundary: 5.055 [ms]
[INFO] PISOStep: 348973 [ms]
[INFO] TimeStep: 704886 [ms]
ExecutionTime = 705.98 s  ClockTime = 710 s

Time = 0.00025

Courant Number mean: 0.0108822 max: 0.437683
[INFO] MatrixAssemblyU: 615.367 [ms]
DILUPBiCGStab:  Solving for Ux, Initial residual = 0.108151, Final residual = 0.0127621, No Iterations 5
DILUPBiCGStab:  Solving for Uy, Initial residual = 0.484293, Final residual = 0.0502291, No Iterations 5
DILUPBiCGStab:  Solving for Uz, Initial residual = 0.996435, Final residual = 0.114507, No Iterations 5
[INFO] MomentumPredictor: 7039.31 [ms]
[INFO] MatrixAssemblyPI: 803.308 [ms]
[INFO] AdjustPhi: 49.896 [ms]
[INFO] ConstrainPressure: 0.004 [ms]
[INFO] MatrixAssemblyPII: 230.586 [ms]
nonePCG:  Solving for p, Initial residual = 0.905671, Final residual = 9.94138e-05, No Iterations 3187
[INFO] SolveP: 341491 [ms]
time step continuity errors : sum local = 6.94686e-09, global = 3.02192e-22, cumulative = -1.99883e-21
[INFO] ContinuityError: 119.528 [ms]
[INFO] CorrectBoundary: 5.293 [ms]
[INFO] PISOStep: 342959 [ms]
[INFO] MatrixAssemblyPI: 793.759 [ms]
[INFO] AdjustPhi: 49.051 [ms]
[INFO] ConstrainPressure: 0.004 [ms]
[INFO] MatrixAssemblyPII: 231.342 [ms]
nonePCG:  Solving for p, Initial residual = 0.856952, Final residual = 9.87967e-05, No Iterations 3182
[INFO] SolveP: 341455 [ms]
time step continuity errors : sum local = 7.03202e-09, global = 3.69354e-22, cumulative = -1.62948e-21
[INFO] ContinuityError: 116.308 [ms]
[INFO] CorrectBoundary: 3.672 [ms]
[INFO] PISOStep: 342910 [ms]
[INFO] TimeStep: 693629 [ms]
ExecutionTime = 1396.33 s  ClockTime = 1403 s

Time = 0.000375

Courant Number mean: 0.016989 max: 0.511334
[INFO] MatrixAssemblyU: 615.953 [ms]
DILUPBiCGStab:  Solving for Ux, Initial residual = 0.0537302, Final residual = 0.00524958, No Iterations 5
DILUPBiCGStab:  Solving for Uy, Initial residual = 0.261853, Final residual = 0.0256294, No Iterations 5
DILUPBiCGStab:  Solving for Uz, Initial residual = 0.87548, Final residual = 0.0870197, No Iterations 5
[INFO] MomentumPredictor: 7039.38 [ms]
[INFO] MatrixAssemblyPI: 803.935 [ms]
[INFO] AdjustPhi: 48.216 [ms]
[INFO] ConstrainPressure: 0.004 [ms]
[INFO] MatrixAssemblyPII: 232.406 [ms]
nonePCG:  Solving for p, Initial residual = 0.940504, Final residual = 9.83179e-05, No Iterations 1538
[INFO] SolveP: 166537 [ms]
time step continuity errors : sum local = 8.89514e-09, global = 6.20205e-22, cumulative = -1.00927e-21
[INFO] ContinuityError: 113.655 [ms]
[INFO] CorrectBoundary: 8.544 [ms]
[INFO] PISOStep: 168006 [ms]
[INFO] MatrixAssemblyPI: 789.668 [ms]
[INFO] AdjustPhi: 57.647 [ms]
[INFO] ConstrainPressure: 0.004 [ms]
[INFO] MatrixAssemblyPII: 231.444 [ms]
nonePCG:  Solving for p, Initial residual = 0.90876, Final residual = 9.95114e-05, No Iterations 1534
[INFO] SolveP: 165288 [ms]
time step continuity errors : sum local = 8.77177e-09, global = 1.04905e-22, cumulative = -9.04369e-22
[INFO] ContinuityError: 119.611 [ms]
[INFO] CorrectBoundary: 4.734 [ms]
[INFO] PISOStep: 166752 [ms]
[INFO] TimeStep: 342523 [ms]
ExecutionTime = 1737.23 s  ClockTime = 1746 s

Time = 0.0005

Courant Number mean: 0.0206053 max: 0.477586
[INFO] MatrixAssemblyU: 618.304 [ms]
DILUPBiCGStab:  Solving for Ux, Initial residual = 0.0416106, Final residual = 0.004863, No Iterations 5
DILUPBiCGStab:  Solving for Uy, Initial residual = 0.214079, Final residual = 0.0232205, No Iterations 5
DILUPBiCGStab:  Solving for Uz, Initial residual = 0.781458, Final residual = 0.0641282, No Iterations 5
[INFO] MomentumPredictor: 7074.98 [ms]
[INFO] MatrixAssemblyPI: 806.264 [ms]
[INFO] AdjustPhi: 45.437 [ms]
[INFO] ConstrainPressure: 0.005 [ms]
[INFO] MatrixAssemblyPII: 230.054 [ms]
nonePCG:  Solving for p, Initial residual = 0.936934, Final residual = 9.68677e-05, No Iterations 1534
[INFO] SolveP: 166262 [ms]
time step continuity errors : sum local = 1.08878e-08, global = -3.37076e-23, cumulative = -9.38077e-22
[INFO] ContinuityError: 114.209 [ms]
[INFO] CorrectBoundary: 4.23 [ms]
[INFO] PISOStep: 167722 [ms]
[INFO] MatrixAssemblyPI: 793.325 [ms]
[INFO] AdjustPhi: 58.366 [ms]
[INFO] ConstrainPressure: 0.004 [ms]
[INFO] MatrixAssemblyPII: 231.403 [ms]
nonePCG:  Solving for p, Initial residual = 0.879627, Final residual = 9.99629e-05, No Iterations 1512
[INFO] SolveP: 163576 [ms]
time step continuity errors : sum local = 1.10774e-08, global = -3.69937e-22, cumulative = -1.30801e-21
[INFO] ContinuityError: 112.211 [ms]
[INFO] CorrectBoundary: 4.865 [ms]
[INFO] PISOStep: 165036 [ms]
[INFO] TimeStep: 340561 [ms]
ExecutionTime = 2076.18 s  ClockTime = 2086 s

Time = 0.000625

Courant Number mean: 0.0236937 max: 0.555601
[INFO] MatrixAssemblyU: 617.231 [ms]
DILUPBiCGStab:  Solving for Ux, Initial residual = 0.037614, Final residual = 0.00440389, No Iterations 5
DILUPBiCGStab:  Solving for Uy, Initial residual = 0.184691, Final residual = 0.0189843, No Iterations 5
DILUPBiCGStab:  Solving for Uz, Initial residual = 0.752131, Final residual = 0.0549275, No Iterations 5
[INFO] MomentumPredictor: 7050.65 [ms]
[INFO] MatrixAssemblyPI: 805.365 [ms]
[INFO] AdjustPhi: 52.944 [ms]
[INFO] ConstrainPressure: 0.005 [ms]
[INFO] MatrixAssemblyPII: 231.04 [ms]
nonePCG:  Solving for p, Initial residual = 0.953552, Final residual = 9.99689e-05, No Iterations 2908
[INFO] SolveP: 313563 [ms]
time step continuity errors : sum local = 1.23525e-08, global = -4.40629e-22, cumulative = -1.74864e-21
[INFO] ContinuityError: 113.964 [ms]
[INFO] CorrectBoundary: 4.252 [ms]
[INFO] PISOStep: 315029 [ms]
[INFO] MatrixAssemblyPI: 788.765 [ms]
[INFO] AdjustPhi: 49.029 [ms]
[INFO] ConstrainPressure: 0.004 [ms]
[INFO] MatrixAssemblyPII: 231.364 [ms]
nonePCG:  Solving for p, Initial residual = 0.915155, Final residual = 9.94275e-05, No Iterations 2887
[INFO] SolveP: 311904 [ms]
time step continuity errors : sum local = 1.22121e-08, global = 5.30972e-22, cumulative = -1.21767e-21
[INFO] ContinuityError: 111.776 [ms]
[INFO] CorrectBoundary: 4.119 [ms]
[INFO] PISOStep: 313350 [ms]
[INFO] TimeStep: 636151 [ms]
ExecutionTime = 2709.28 s  ClockTime = 2722 s

Time = 0.00075

Courant Number mean: 0.0260431 max: 0.483405
[INFO] MatrixAssemblyU: 619.665 [ms]
DILUPBiCGStab:  Solving for Ux, Initial residual = 0.0354403, Final residual = 0.00412775, No Iterations 5
DILUPBiCGStab:  Solving for Uy, Initial residual = 0.171449, Final residual = 0.0161235, No Iterations 5
DILUPBiCGStab:  Solving for Uz, Initial residual = 0.700709, Final residual = 0.0471623, No Iterations 5
[INFO] MomentumPredictor: 7046.59 [ms]
[INFO] MatrixAssemblyPI: 803.701 [ms]
[INFO] AdjustPhi: 47.469 [ms]
[INFO] ConstrainPressure: 0.005 [ms]
[INFO] MatrixAssemblyPII: 230.569 [ms]
nonePCG:  Solving for p, Initial residual = 0.950372, Final residual = 9.99916e-05, No Iterations 3091
[INFO] SolveP: 330751 [ms]
time step continuity errors : sum local = 1.42446e-08, global = 7.97421e-22, cumulative = -4.20249e-22
[INFO] ContinuityError: 113.175 [ms]
[INFO] CorrectBoundary: 4.443 [ms]
[INFO] PISOStep: 332208 [ms]
[INFO] MatrixAssemblyPI: 786.644 [ms]
[INFO] AdjustPhi: 50.172 [ms]
[INFO] ConstrainPressure: 0.004 [ms]
[INFO] MatrixAssemblyPII: 230.9 [ms]
nonePCG:  Solving for p, Initial residual = 0.890733, Final residual = 9.81083e-05, No Iterations 3088
[INFO] SolveP: 335144 [ms]
time step continuity errors : sum local = 1.41988e-08, global = 7.17515e-23, cumulative = -3.48497e-22
[INFO] ContinuityError: 112.053 [ms]
[INFO] CorrectBoundary: 4.461 [ms]
[INFO] PISOStep: 336588 [ms]
[INFO] TimeStep: 676573 [ms]
ExecutionTime = 3382.83 s  ClockTime = 3399 s

Time = 0.000875

Courant Number mean: 0.028264 max: 0.611474
[INFO] MatrixAssemblyU: 617.264 [ms]
DILUPBiCGStab:  Solving for Ux, Initial residual = 0.0350652, Final residual = 0.00388794, No Iterations 5
DILUPBiCGStab:  Solving for Uy, Initial residual = 0.176353, Final residual = 0.0153434, No Iterations 5
DILUPBiCGStab:  Solving for Uz, Initial residual = 0.690801, Final residual = 0.0405318, No Iterations 5
[INFO] MomentumPredictor: 7027.78 [ms]
[INFO] MatrixAssemblyPI: 804.504 [ms]
[INFO] AdjustPhi: 46.95 [ms]
[INFO] ConstrainPressure: 0.004 [ms]
[INFO] MatrixAssemblyPII: 230.912 [ms]
nonePCG:  Solving for p, Initial residual = 0.961384, Final residual = 9.9665e-05, No Iterations 1510
[INFO] SolveP: 162079 [ms]
time step continuity errors : sum local = 1.78048e-08, global = 1.79498e-22, cumulative = -1.68999e-22
[INFO] ContinuityError: 120.912 [ms]
[INFO] CorrectBoundary: 4.224 [ms]
[INFO] PISOStep: 163544 [ms]
[INFO] MatrixAssemblyPI: 789.539 [ms]
[INFO] AdjustPhi: 47.492 [ms]
[INFO] ConstrainPressure: 0.005 [ms]
[INFO] MatrixAssemblyPII: 230.953 [ms]
nonePCG:  Solving for p, Initial residual = 0.917527, Final residual = 9.93305e-05, No Iterations 1488
[INFO] SolveP: 161136 [ms]
time step continuity errors : sum local = 1.65373e-08, global = 4.39285e-22, cumulative = 2.70286e-22
[INFO] ContinuityError: 111.743 [ms]
[INFO] CorrectBoundary: 4.456 [ms]
[INFO] PISOStep: 162580 [ms]
[INFO] TimeStep: 333879 [ms]
ExecutionTime = 3715.22 s  ClockTime = 3733 s

Time = 0.001

Courant Number mean: 0.0300285 max: 0.490999
[INFO] MatrixAssemblyU: 618.264 [ms]
DILUPBiCGStab:  Solving for Ux, Initial residual = 0.0361302, Final residual = 0.00371952, No Iterations 5
DILUPBiCGStab:  Solving for Uy, Initial residual = 0.170611, Final residual = 0.0133734, No Iterations 5
DILUPBiCGStab:  Solving for Uz, Initial residual = 0.683732, Final residual = 0.0407094, No Iterations 5
[INFO] MomentumPredictor: 7020.81 [ms]
[INFO] MatrixAssemblyPI: 804.766 [ms]
[INFO] AdjustPhi: 49.126 [ms]
[INFO] ConstrainPressure: 0.005 [ms]
[INFO] MatrixAssemblyPII: 231.7 [ms]
nonePCG:  Solving for p, Initial residual = 0.959296, Final residual = 9.89052e-05, No Iterations 3076
[INFO] SolveP: 330006 [ms]
time step continuity errors : sum local = 1.83653e-08, global = 7.03621e-22, cumulative = 9.73906e-22
[INFO] ContinuityError: 113.715 [ms]
[INFO] CorrectBoundary: 5.112 [ms]
[INFO] PISOStep: 331468 [ms]
[INFO] MatrixAssemblyPI: 789.619 [ms]
[INFO] AdjustPhi: 61.957 [ms]
[INFO] ConstrainPressure: 0.004 [ms]
[INFO] MatrixAssemblyPII: 230.74 [ms]
nonePCG:  Solving for p, Initial residual = 0.897608, Final residual = 9.91704e-05, No Iterations 3072
[INFO] SolveP: 331727 [ms]
time step continuity errors : sum local = 1.86906e-08, global = 1.24999e-21, cumulative = 2.2239e-21
[INFO] ContinuityError: 117.867 [ms]
[INFO] CorrectBoundary: 3.847 [ms]
[INFO] PISOStep: 333192 [ms]
[INFO] TimeStep: 672409 [ms]
ExecutionTime = 4384.62 s  ClockTime = 4405 s

Time = 0.001125

Courant Number mean: 0.0318575 max: 0.695097
[INFO] MatrixAssemblyU: 617.013 [ms]
DILUPBiCGStab:  Solving for Ux, Initial residual = 0.0375848, Final residual = 0.00355565, No Iterations 5
DILUPBiCGStab:  Solving for Uy, Initial residual = 0.187421, Final residual = 0.0136919, No Iterations 5
DILUPBiCGStab:  Solving for Uz, Initial residual = 0.691794, Final residual = 0.0363786, No Iterations 5
[INFO] MomentumPredictor: 7016.56 [ms]
[INFO] MatrixAssemblyPI: 804.419 [ms]
[INFO] AdjustPhi: 47.113 [ms]
[INFO] ConstrainPressure: 0.004 [ms]
[INFO] MatrixAssemblyPII: 231.1 [ms]
nonePCG:  Solving for p, Initial residual = 0.96738, Final residual = 9.62179e-05, No Iterations 3072
[INFO] SolveP: 328767 [ms]
time step continuity errors : sum local = 2.05274e-08, global = 1.18035e-22, cumulative = 2.34193e-21
[INFO] ContinuityError: 113.684 [ms]
[INFO] CorrectBoundary: 2.269 [ms]
[INFO] PISOStep: 330223 [ms]
[INFO] MatrixAssemblyPI: 788.474 [ms]
[INFO] AdjustPhi: 52.269 [ms]
[INFO] ConstrainPressure: 0.003 [ms]
[INFO] MatrixAssemblyPII: 230.56 [ms]
nonePCG:  Solving for p, Initial residual = 0.918573, Final residual = 9.85468e-05, No Iterations 3069
[INFO] SolveP: 332480 [ms]
time step continuity errors : sum local = 2.09989e-08, global = 4.8686e-22, cumulative = 2.82879e-21
[INFO] ContinuityError: 117.17 [ms]
[INFO] CorrectBoundary: 2.64 [ms]
[INFO] PISOStep: 333934 [ms]
[INFO] TimeStep: 671901 [ms]
ExecutionTime = 5053.49 s  ClockTime = 5077 s

Time = 0.00125

Courant Number mean: 0.0332841 max: 0.507061
[INFO] MatrixAssemblyU: 617.712 [ms]
DILUPBiCGStab:  Solving for Ux, Initial residual = 0.0409903, Final residual = 0.00360933, No Iterations 5
DILUPBiCGStab:  Solving for Uy, Initial residual = 0.186291, Final residual = 0.0121124, No Iterations 5
DILUPBiCGStab:  Solving for Uz, Initial residual = 0.691451, Final residual = 0.0349359, No Iterations 5
[INFO] MomentumPredictor: 7055.38 [ms]
[INFO] MatrixAssemblyPI: 805.109 [ms]
[INFO] AdjustPhi: 47.068 [ms]
[INFO] ConstrainPressure: 0.004 [ms]
[INFO] MatrixAssemblyPII: 231.089 [ms]
nonePCG:  Solving for p, Initial residual = 0.966738, Final residual = 9.91685e-05, No Iterations 3072
[INFO] SolveP: 330186 [ms]
time step continuity errors : sum local = 2.46786e-08, global = 2.75981e-22, cumulative = 3.10478e-21
[INFO] ContinuityError: 119.36 [ms]
[INFO] CorrectBoundary: 1.66 [ms]
[INFO] PISOStep: 331650 [ms]
[INFO] MatrixAssemblyPI: 789.362 [ms]
[INFO] AdjustPhi: 47.248 [ms]
[INFO] ConstrainPressure: 0.004 [ms]
[INFO] MatrixAssemblyPII: 230.917 [ms]
nonePCG:  Solving for p, Initial residual = 0.903522, Final residual = 9.90816e-05, No Iterations 3069
[INFO] SolveP: 331357 [ms]
time step continuity errors : sum local = 2.4992e-08, global = 5.9345e-22, cumulative = 3.69823e-21
[INFO] ContinuityError: 116.74 [ms]
[INFO] CorrectBoundary: 3.255 [ms]
[INFO] PISOStep: 332807 [ms]
[INFO] TimeStep: 672242 [ms]
ExecutionTime = 5722.7 s  ClockTime = 5749 s

Time = 0.001375

Courant Number mean: 0.0349053 max: 0.825991
[INFO] MatrixAssemblyU: 617.071 [ms]
DILUPBiCGStab:  Solving for Ux, Initial residual = 0.0438231, Final residual = 0.00346188, No Iterations 5
DILUPBiCGStab:  Solving for Uy, Initial residual = 0.210346, Final residual = 0.0131312, No Iterations 5
DILUPBiCGStab:  Solving for Uz, Initial residual = 0.706479, Final residual = 0.0344328, No Iterations 5
[INFO] MomentumPredictor: 7034.69 [ms]
[INFO] MatrixAssemblyPI: 805.402 [ms]
[INFO] AdjustPhi: 45.043 [ms]
[INFO] ConstrainPressure: 0.004 [ms]
[INFO] MatrixAssemblyPII: 231.141 [ms]
nonePCG:  Solving for p, Initial residual = 0.972365, Final residual = 9.77529e-05, No Iterations 3072
[INFO] SolveP: 328459 [ms]
time step continuity errors : sum local = 2.82969e-08, global = 1.62106e-21, cumulative = 5.31929e-21
[INFO] ContinuityError: 114.82 [ms]
[INFO] CorrectBoundary: 2.609 [ms]
[INFO] PISOStep: 329915 [ms]
[INFO] MatrixAssemblyPI: 788.514 [ms]
[INFO] AdjustPhi: 49.179 [ms]
[INFO] ConstrainPressure: 0.004 [ms]
[INFO] MatrixAssemblyPII: 231.559 [ms]
nonePCG:  Solving for p, Initial residual = 0.919626, Final residual = 9.97746e-05, No Iterations 3068
[INFO] SolveP: 332122 [ms]
time step continuity errors : sum local = 2.89051e-08, global = 6.12566e-22, cumulative = 5.93185e-21
[INFO] ContinuityError: 117.296 [ms]
[INFO] CorrectBoundary: 3.694 [ms]
[INFO] PISOStep: 333577 [ms]
[INFO] TimeStep: 671254 [ms]
ExecutionTime = 6390.91 s  ClockTime = 6421 s

Time = 0.0015

Courant Number mean: 0.036114 max: 0.598571
[INFO] MatrixAssemblyU: 617.854 [ms]
DILUPBiCGStab:  Solving for Ux, Initial residual = 0.0494267, Final residual = 0.00366172, No Iterations 5
DILUPBiCGStab:  Solving for Uy, Initial residual = 0.214927, Final residual = 0.0120599, No Iterations 5
DILUPBiCGStab:  Solving for Uz, Initial residual = 0.710654, Final residual = 0.0339129, No Iterations 5
[INFO] MomentumPredictor: 7018.33 [ms]
[INFO] MatrixAssemblyPI: 804.146 [ms]
[INFO] AdjustPhi: 46.656 [ms]
[INFO] ConstrainPressure: 0.004 [ms]
[INFO] MatrixAssemblyPII: 231.05 [ms]
nonePCG:  Solving for p, Initial residual = 0.972627, Final residual = 9.63623e-05, No Iterations 3073
[INFO] SolveP: 329626 [ms]
time step continuity errors : sum local = 3.27587e-08, global = 3.89938e-22, cumulative = 6.32179e-21
[INFO] ContinuityError: 113.881 [ms]
[INFO] CorrectBoundary: 1.699 [ms]
[INFO] PISOStep: 331082 [ms]
[INFO] MatrixAssemblyPI: 790.418 [ms]
[INFO] AdjustPhi: 49.442 [ms]
[INFO] ConstrainPressure: 0.004 [ms]
[INFO] MatrixAssemblyPII: 231.378 [ms]
nonePCG:  Solving for p, Initial residual = 0.908673, Final residual = 9.82766e-05, No Iterations 3069
[INFO] SolveP: 332616 [ms]
time step continuity errors : sum local = 3.38211e-08, global = 7.66486e-22, cumulative = 7.08828e-21
[INFO] ContinuityError: 112.569 [ms]
[INFO] CorrectBoundary: 2.2 [ms]
[INFO] PISOStep: 334060 [ms]
[INFO] TimeStep: 672889 [ms]
ExecutionTime = 7060.79 s  ClockTime = 7094 s

Time = 0.001625

Courant Number mean: 0.0376313 max: 1.1447
[INFO] MatrixAssemblyU: 616.927 [ms]
DILUPBiCGStab:  Solving for Ux, Initial residual = 0.0541994, Final residual = 0.00361794, No Iterations 5
DILUPBiCGStab:  Solving for Uy, Initial residual = 0.243865, Final residual = 0.0133246, No Iterations 5
DILUPBiCGStab:  Solving for Uz, Initial residual = 0.723878, Final residual = 0.0337878, No Iterations 5
[INFO] MomentumPredictor: 7030.57 [ms]
[INFO] MatrixAssemblyPI: 804.12 [ms]
[INFO] AdjustPhi: 44.897 [ms]
[INFO] ConstrainPressure: 0.004 [ms]
[INFO] MatrixAssemblyPII: 231.352 [ms]
nonePCG:  Solving for p, Initial residual = 0.976307, Final residual = 9.81438e-05, No Iterations 3073
[INFO] SolveP: 330255 [ms]
time step continuity errors : sum local = 3.91843e-08, global = 1.26189e-21, cumulative = 8.35017e-21
[INFO] ContinuityError: 120.927 [ms]
[INFO] CorrectBoundary: 1.445 [ms]
[INFO] PISOStep: 331722 [ms]
[INFO] MatrixAssemblyPI: 786.654 [ms]
[INFO] AdjustPhi: 49.777 [ms]
[INFO] ConstrainPressure: 0.004 [ms]
[INFO] MatrixAssemblyPII: 231.097 [ms]
nonePCG:  Solving for p, Initial residual = 0.920398, Final residual = 9.88268e-05, No Iterations 3070
[INFO] SolveP: 330721 [ms]
time step continuity errors : sum local = 3.95602e-08, global = 7.57504e-22, cumulative = 9.10767e-21
[INFO] ContinuityError: 113.45 [ms]
[INFO] CorrectBoundary: 3.762 [ms]
[INFO] PISOStep: 332164 [ms]
[INFO] TimeStep: 671644 [ms]
ExecutionTime = 7729.41 s  ClockTime = 7765 s

Time = 0.00175

Courant Number mean: 0.0387 max: 1.02168
[INFO] MatrixAssemblyU: 617.144 [ms]
DILUPBiCGStab:  Solving for Ux, Initial residual = 0.0624207, Final residual = 0.00391357, No Iterations 5
DILUPBiCGStab:  Solving for Uy, Initial residual = 0.254655, Final residual = 0.0127704, No Iterations 5
DILUPBiCGStab:  Solving for Uz, Initial residual = 0.728617, Final residual = 0.0335359, No Iterations 5
[INFO] MomentumPredictor: 7025.35 [ms]
[INFO] MatrixAssemblyPI: 804.182 [ms]
[INFO] AdjustPhi: 48.354 [ms]
[INFO] ConstrainPressure: 0.004 [ms]
[INFO] MatrixAssemblyPII: 231.894 [ms]
nonePCG:  Solving for p, Initial residual = 0.976948, Final residual = 9.99228e-05, No Iterations 3064
[INFO] SolveP: 328027 [ms]
time step continuity errors : sum local = 4.71262e-08, global = -1.36136e-22, cumulative = 8.97153e-21
[INFO] ContinuityError: 113.635 [ms]
[INFO] CorrectBoundary: 2.58 [ms]
[INFO] PISOStep: 329484 [ms]
[INFO] MatrixAssemblyPI: 786.256 [ms]
[INFO] AdjustPhi: 53.896 [ms]
[INFO] ConstrainPressure: 0.004 [ms]
[INFO] MatrixAssemblyPII: 230.486 [ms]
nonePCG:  Solving for p, Initial residual = 0.912773, Final residual = 9.71051e-05, No Iterations 3069
[INFO] SolveP: 332624 [ms]
time step continuity errors : sum local = 4.63118e-08, global = 5.35031e-22, cumulative = 9.50657e-21
[INFO] ContinuityError: 113.034 [ms]
[INFO] CorrectBoundary: 3.901 [ms]
[INFO] PISOStep: 334073 [ms]
[INFO] TimeStep: 671311 [ms]
ExecutionTime = 8397.71 s  ClockTime = 8437 s

Time = 0.001875

Courant Number mean: 0.0401896 max: 1.68532
[INFO] MatrixAssemblyU: 615.694 [ms]
DILUPBiCGStab:  Solving for Ux, Initial residual = 0.0696083, Final residual = 0.00401298, No Iterations 5
DILUPBiCGStab:  Solving for Uy, Initial residual = 0.287391, Final residual = 0.0141276, No Iterations 5
DILUPBiCGStab:  Solving for Uz, Initial residual = 0.73784, Final residual = 0.0333712, No Iterations 5
[INFO] MomentumPredictor: 7023.02 [ms]
[INFO] MatrixAssemblyPI: 801.917 [ms]
[INFO] AdjustPhi: 47.612 [ms]
[INFO] ConstrainPressure: 0.004 [ms]
[INFO] MatrixAssemblyPII: 231.294 [ms]
nonePCG:  Solving for p, Initial residual = 0.979122, Final residual = 9.91147e-05, No Iterations 3077
[INFO] SolveP: 329118 [ms]
time step continuity errors : sum local = 5.52495e-08, global = -3.69905e-22, cumulative = 9.13666e-21
[INFO] ContinuityError: 113.733 [ms]
[INFO] CorrectBoundary: 3.38 [ms]
[INFO] PISOStep: 330575 [ms]
[INFO] MatrixAssemblyPI: 787.738 [ms]
[INFO] AdjustPhi: 51.316 [ms]
[INFO] ConstrainPressure: 0.004 [ms]
[INFO] MatrixAssemblyPII: 230.446 [ms]
nonePCG:  Solving for p, Initial residual = 0.920891, Final residual = 9.8303e-05, No Iterations 3073
[INFO] SolveP: 333110 [ms]
time step continuity errors : sum local = 5.50245e-08, global = 7.12073e-22, cumulative = 9.84873e-21
[INFO] ContinuityError: 112.53 [ms]
[INFO] CorrectBoundary: 4.346 [ms]
[INFO] PISOStep: 334558 [ms]
[INFO] TimeStep: 672882 [ms]
ExecutionTime = 9067.56 s  ClockTime = 9109 s

Time = 0.002

Courant Number mean: 0.0411915 max: 1.72722
[INFO] MatrixAssemblyU: 619.037 [ms]
DILUPBiCGStab:  Solving for Ux, Initial residual = 0.0814177, Final residual = 0.00442852, No Iterations 5
DILUPBiCGStab:  Solving for Uy, Initial residual = 0.304634, Final residual = 0.0140189, No Iterations 5
DILUPBiCGStab:  Solving for Uz, Initial residual = 0.741668, Final residual = 0.0331874, No Iterations 5
[INFO] MomentumPredictor: 7044.28 [ms]
[INFO] MatrixAssemblyPI: 801.912 [ms]
[INFO] AdjustPhi: 52.874 [ms]
[INFO] ConstrainPressure: 0.005 [ms]
[INFO] MatrixAssemblyPII: 230.179 [ms]
nonePCG:  Solving for p, Initial residual = 0.980248, Final residual = 9.93592e-05, No Iterations 3078
[INFO] SolveP: 329432 [ms]
time step continuity errors : sum local = 6.57209e-08, global = 1.21104e-21, cumulative = 1.10598e-20
[INFO] ContinuityError: 127.332 [ms]
[INFO] CorrectBoundary: 2.337 [ms]
[INFO] PISOStep: 330904 [ms]
[INFO] MatrixAssemblyPI: 786.32 [ms]
[INFO] AdjustPhi: 51.078 [ms]
[INFO] ConstrainPressure: 0.004 [ms]
[INFO] MatrixAssemblyPII: 230.036 [ms]
nonePCG:  Solving for p, Initial residual = 0.915846, Final residual = 9.99471e-05, No Iterations 3074
[INFO] SolveP: 331520 [ms]
time step continuity errors : sum local = 6.67979e-08, global = 2.44122e-22, cumulative = 1.13039e-20
[INFO] ContinuityError: 114.489 [ms]
[INFO] CorrectBoundary: 3.534 [ms]
[INFO] PISOStep: 332964 [ms]
[INFO] TimeStep: 671641 [ms]
ExecutionTime = 9736.18 s  ClockTime = 9781 s

Time = 0.002125

Courant Number mean: 0.0427247 max: 2.56757
[INFO] MatrixAssemblyU: 611.608 [ms]
DILUPBiCGStab:  Solving for Ux, Initial residual = 0.0917273, Final residual = 0.0046958, No Iterations 5
DILUPBiCGStab:  Solving for Uy, Initial residual = 0.340432, Final residual = 0.0154409, No Iterations 5
DILUPBiCGStab:  Solving for Uz, Initial residual = 0.747702, Final residual = 0.0330969, No Iterations 5
[INFO] MomentumPredictor: 7015.83 [ms]
[INFO] MatrixAssemblyPI: 801.072 [ms]
[INFO] AdjustPhi: 49.385 [ms]
[INFO] ConstrainPressure: 0.004 [ms]
[INFO] MatrixAssemblyPII: 231.912 [ms]
nonePCG:  Solving for p, Initial residual = 0.981294, Final residual = 9.95929e-05, No Iterations 3078
[INFO] SolveP: 329249 [ms]
time step continuity errors : sum local = 7.85001e-08, global = 1.58741e-21, cumulative = 1.28913e-20
[INFO] ContinuityError: 120.169 [ms]
[INFO] CorrectBoundary: 4.027 [ms]
[INFO] PISOStep: 330712 [ms]
[INFO] MatrixAssemblyPI: 786.307 [ms]
[INFO] AdjustPhi: 48.782 [ms]
[INFO] ConstrainPressure: 0.004 [ms]
[INFO] MatrixAssemblyPII: 229.642 [ms]
nonePCG:  Solving for p, Initial residual = 0.920888, Final residual = 9.97842e-05, No Iterations 3075
[INFO] SolveP: 333349 [ms]
time step continuity errors : sum local = 7.909e-08, global = 4.6198e-22, cumulative = 1.33533e-20
[INFO] ContinuityError: 118.204 [ms]
[INFO] CorrectBoundary: 5.267 [ms]
[INFO] PISOStep: 334799 [ms]
[INFO] TimeStep: 673249 [ms]
ExecutionTime = 10406.5 s  ClockTime = 10454 s

Time = 0.00225

Courant Number mean: 0.0437438 max: 2.88681
[INFO] MatrixAssemblyU: 612.414 [ms]
DILUPBiCGStab:  Solving for Ux, Initial residual = 0.108703, Final residual = 0.00530252, No Iterations 5
DILUPBiCGStab:  Solving for Uy, Initial residual = 0.363957, Final residual = 0.0157179, No Iterations 5
DILUPBiCGStab:  Solving for Uz, Initial residual = 0.750307, Final residual = 0.0328714, No Iterations 5
[INFO] MomentumPredictor: 7027.98 [ms]
[INFO] MatrixAssemblyPI: 804.599 [ms]
[INFO] AdjustPhi: 53.7 [ms]
[INFO] ConstrainPressure: 0.004 [ms]
[INFO] MatrixAssemblyPII: 229.898 [ms]
nonePCG:  Solving for p, Initial residual = 0.982541, Final residual = 9.81724e-05, No Iterations 3082
[INFO] SolveP: 329812 [ms]
time step continuity errors : sum local = 9.25616e-08, global = 1.65085e-21, cumulative = 1.50041e-20
[INFO] ContinuityError: 119.935 [ms]
[INFO] CorrectBoundary: 2.455 [ms]
[INFO] PISOStep: 331280 [ms]
[INFO] MatrixAssemblyPI: 784.045 [ms]
[INFO] AdjustPhi: 55.047 [ms]
[INFO] ConstrainPressure: 0.004 [ms]
[INFO] MatrixAssemblyPII: 229.807 [ms]
nonePCG:  Solving for p, Initial residual = 0.91797, Final residual = 9.95063e-05, No Iterations 3077
[INFO] SolveP: 333521 [ms]
time step continuity errors : sum local = 9.47453e-08, global = 1.20789e-21, cumulative = 1.6212e-20
[INFO] ContinuityError: 113.942 [ms]
[INFO] CorrectBoundary: 2.88 [ms]
[INFO] PISOStep: 334964 [ms]
[INFO] TimeStep: 673995 [ms]
ExecutionTime = 11077.5 s  ClockTime = 11128 s

Time = 0.002375

Courant Number mean: 0.045408 max: 4.00916
[INFO] MatrixAssemblyU: 613.762 [ms]
DILUPBiCGStab:  Solving for Ux, Initial residual = 0.123025, Final residual = 0.00575542, No Iterations 5
DILUPBiCGStab:  Solving for Uy, Initial residual = 0.40101, Final residual = 0.0171829, No Iterations 5
DILUPBiCGStab:  Solving for Uz, Initial residual = 0.754079, Final residual = 0.0328346, No Iterations 5
[INFO] MomentumPredictor: 7039.26 [ms]
[INFO] MatrixAssemblyPI: 800.247 [ms]
[INFO] AdjustPhi: 51.684 [ms]
[INFO] ConstrainPressure: 0.004 [ms]
[INFO] MatrixAssemblyPII: 229.729 [ms]
nonePCG:  Solving for p, Initial residual = 0.982978, Final residual = 9.81863e-05, No Iterations 3083
[INFO] SolveP: 331224 [ms]
time step continuity errors : sum local = 1.11194e-07, global = 2.47968e-21, cumulative = 1.86917e-20
[INFO] ContinuityError: 127.176 [ms]
[INFO] CorrectBoundary: 2.655 [ms]
[INFO] PISOStep: 332693 [ms]
[INFO] MatrixAssemblyPI: 784.744 [ms]
[INFO] AdjustPhi: 52.63 [ms]
[INFO] ConstrainPressure: 0.003 [ms]
[INFO] MatrixAssemblyPII: 230.175 [ms]
nonePCG:  Solving for p, Initial residual = 0.921155, Final residual = 9.96281e-05, No Iterations 3079
[INFO] SolveP: 331475 [ms]
time step continuity errors : sum local = 1.13582e-07, global = 4.32047e-22, cumulative = 1.91238e-20
[INFO] ContinuityError: 113.525 [ms]
[INFO] CorrectBoundary: 4.546 [ms]
[INFO] PISOStep: 332922 [ms]
[INFO] TimeStep: 673379 [ms]
ExecutionTime = 11747.9 s  ClockTime = 11802 s

Time = 0.0025

Courant Number mean: 0.0465596 max: 4.77646
[INFO] MatrixAssemblyU: 612.48 [ms]
DILUPBiCGStab:  Solving for Ux, Initial residual = 0.146967, Final residual = 0.00663494, No Iterations 5
DILUPBiCGStab:  Solving for Uy, Initial residual = 0.429084, Final residual = 0.0177681, No Iterations 5
DILUPBiCGStab:  Solving for Uz, Initial residual = 0.755586, Final residual = 0.032621, No Iterations 5
[INFO] MomentumPredictor: 7019.04 [ms]
[INFO] MatrixAssemblyPI: 800.92 [ms]
[INFO] AdjustPhi: 49.359 [ms]
[INFO] ConstrainPressure: 0.004 [ms]
[INFO] MatrixAssemblyPII: 229.634 [ms]
nonePCG:  Solving for p, Initial residual = 0.983896, Final residual = 9.90997e-05, No Iterations 3084
[INFO] SolveP: 329154 [ms]
time step continuity errors : sum local = 1.35209e-07, global = -9.21428e-22, cumulative = 1.82023e-20
[INFO] ContinuityError: 119.821 [ms]
[INFO] CorrectBoundary: 2.681 [ms]
[INFO] PISOStep: 330614 [ms]
[INFO] MatrixAssemblyPI: 784.64 [ms]
[INFO] AdjustPhi: 61.721 [ms]
[INFO] ConstrainPressure: 0.004 [ms]
[INFO] MatrixAssemblyPII: 229.963 [ms]
nonePCG:  Solving for p, Initial residual = 0.919315, Final residual = 9.76196e-05, No Iterations 3081
[INFO] SolveP: 334071 [ms]
time step continuity errors : sum local = 1.34474e-07, global = -8.92011e-22, cumulative = 1.73103e-20
[INFO] ContinuityError: 119.095 [ms]
[INFO] CorrectBoundary: 3.949 [ms]
[INFO] PISOStep: 335530 [ms]
[INFO] TimeStep: 673887 [ms]
ExecutionTime = 12418.8 s  ClockTime = 12476 s

End

Finalising parallel run
