/*---------------------------------------------------------------------------*\
| =========                 |                                                 |
| \\      /  F ield         | OpenFOAM: The Open Source CFD Toolbox           |
|  \\    /   O peration     | Version:  2306                                  |
|   \\  /    A nd           | Website:  www.openfoam.com                      |
|    \\/     M anipulation  |                                                 |
\*---------------------------------------------------------------------------*/
Build  : c423ebec-20231012 OPENFOAM=2306 version=v2306
Arch   : "LSB;label=32;scalar=64"
Exec   : decomposePar -force
Date   : Feb 16 2024
Time   : 09:03:46
Host   : hkn0230.localdomain
PID    : 3704652
--> FOAM Warning : 
    From Foam::fileName Foam::cwd_L()
    in file POSIX.C at line 552
    PWD is not the cwd() - reverting to physical description
I/O    : uncollated
--> FOAM Warning : 
    From Foam::fileName Foam::cwd_L()
    in file POSIX.C at line 552
    PWD is not the cwd() - reverting to physical description
Case   : /hkfs/work/workspace/scratch/eq4036-windsorbody_setup/workspace/c415b2355d6d9edf0308e4acb4a2a67e/case
nProcs : 1
trapFpe: Floating point exception trapping enabled (FOAM_SIGFPE).
fileModificationChecking : Monitoring run-time modified files using timeStampMaster (fileModificationSkew 5, maxFileModificationPolls 20)
allowSystemOperations : Allowing user-supplied system call operations

// * * * * * * * * * * * * * * * * * * * * * * * * * * * * * * * * * * * * * //
Create time

--> FOAM Warning : 
    From void* Foam::dlLibraryTable::openLibrary(const Foam::fileName&, bool)
    in file db/dynamicLibrary/dlLibraryTable/dlLibraryTable.C at line 188
    Could not load "libpetscFoam.so"
libpetscFoam.so: cannot open shared object file: No such file or directory


Decomposing mesh

Create mesh

Calculating distribution of cells
Decomposition method simple [80] (region region0)

Finished decomposition in 3.74 s

Calculating original mesh data

Distributing cells to processors

Distributing faces to processors

Distributing points to processors

Constructing processor meshes

Processor 0
    Number of cells = 127466
    Number of points = 138348
    Number of faces shared with processor 1 = 813
    Number of faces shared with processor 4 = 5612
    Number of faces shared with processor 5 = 1
    Number of faces shared with processor 8 = 199
    Number of faces shared with processor 40 = 3911
    Number of faces shared with processor 44 = 1
    Number of processor patches = 6
    Number of processor faces = 10537
    Number of boundary faces = 8741

Processor 1
    Number of cells = 72387
    Number of points = 80055
    Number of faces shared with processor 0 = 813
    Number of faces shared with processor 2 = 867
    Number of faces shared with processor 5 = 4333
    Number of faces shared with processor 41 = 2030
    Number of processor patches = 4
    Number of processor faces = 8043
    Number of boundary faces = 4317

Processor 2
    Number of cells = 70627
    Number of points = 78763
    Number of faces shared with processor 1 = 867
    Number of faces shared with processor 3 = 885
    Number of faces shared with processor 6 = 4402
    Number of faces shared with processor 41 = 1
    Number of faces shared with processor 42 = 2037
    Number of processor patches = 5
    Number of processor faces = 8192
    Number of boundary faces = 4212

Processor 3
    Number of cells = 145498
    Number of points = 157805
    Number of faces shared with processor 2 = 885
    Number of faces shared with processor 7 = 6623
    Number of faces shared with processor 11 = 310
    Number of faces shared with processor 42 = 11
    Number of faces shared with processor 43 = 4626
    Number of faces shared with processor 47 = 1
    Number of processor patches = 6
    Number of processor faces = 12456
    Number of boundary faces = 9749

Processor 4
    Number of cells = 76526
    Number of points = 88630
    Number of faces shared with processor 0 = 5612
    Number of faces shared with processor 5 = 489
    Number of faces shared with processor 8 = 7565
    Number of faces shared with processor 44 = 1824
    Number of processor patches = 4
    Number of processor faces = 15490
    Number of boundary faces = 4455

Processor 5
    Number of cells = 60563
    Number of points = 67937
    Number of faces shared with processor 0 = 1
    Number of faces shared with processor 1 = 4333
    Number of faces shared with processor 4 = 489
    Number of faces shared with processor 6 = 434
    Number of faces shared with processor 9 = 4524
    Number of faces shared with processor 41 = 1
    Number of faces shared with processor 44 = 2
    Number of faces shared with processor 45 = 1979
    Number of faces shared with processor 49 = 1
    Number of processor patches = 9
    Number of processor faces = 11764
    Number of boundary faces = 2390

Processor 6
    Number of cells = 61576
    Number of points = 68588
    Number of faces shared with processor 2 = 4402
    Number of faces shared with processor 5 = 434
    Number of faces shared with processor 7 = 453
    Number of faces shared with processor 10 = 4392
    Number of faces shared with processor 11 = 1
    Number of faces shared with processor 46 = 1977
    Number of faces shared with processor 47 = 1
    Number of processor patches = 7
    Number of processor faces = 11660
    Number of boundary faces = 1988

Processor 7
    Number of cells = 78807
    Number of points = 89459
    Number of faces shared with processor 3 = 6623
    Number of faces shared with processor 6 = 453
    Number of faces shared with processor 11 = 6657
    Number of faces shared with processor 43 = 4
    Number of faces shared with processor 47 = 1519
    Number of faces shared with processor 51 = 1
    Number of processor patches = 6
    Number of processor faces = 15257
    Number of boundary faces = 4029

Processor 8
    Number of cells = 111214
    Number of points = 123293
    Number of faces shared with processor 0 = 199
    Number of faces shared with processor 4 = 7565
    Number of faces shared with processor 9 = 299
    Number of faces shared with processor 12 = 6502
    Number of faces shared with processor 44 = 16
    Number of faces shared with processor 48 = 1495
    Number of processor patches = 6
    Number of processor faces = 16076
    Number of boundary faces = 10403

Processor 9
    Number of cells = 57520
    Number of points = 64553
    Number of faces shared with processor 5 = 4524
    Number of faces shared with processor 8 = 299
    Number of faces shared with processor 10 = 372
    Number of faces shared with processor 13 = 4478
    Number of faces shared with processor 49 = 1790
    Number of processor patches = 5
    Number of processor faces = 11463
    Number of boundary faces = 2297

Processor 10
    Number of cells = 52637
    Number of points = 59291
    Number of faces shared with processor 6 = 4392
    Number of faces shared with processor 9 = 372
    Number of faces shared with processor 11 = 396
    Number of faces shared with processor 14 = 4379
    Number of faces shared with processor 15 = 1
    Number of faces shared with processor 50 = 1692
    Number of processor patches = 6
    Number of processor faces = 11232
    Number of boundary faces = 1704

Processor 11
    Number of cells = 70878
    Number of points = 82017
    Number of faces shared with processor 3 = 310
    Number of faces shared with processor 6 = 1
    Number of faces shared with processor 7 = 6657
    Number of faces shared with processor 10 = 396
    Number of faces shared with processor 15 = 6979
    Number of faces shared with processor 47 = 3
    Number of faces shared with processor 51 = 1557
    Number of faces shared with processor 55 = 1
    Number of processor patches = 8
    Number of processor faces = 15904
    Number of boundary faces = 3535

Processor 12
    Number of cells = 78427
    Number of points = 88766
    Number of faces shared with processor 8 = 6502
    Number of faces shared with processor 13 = 322
    Number of faces shared with processor 16 = 6363
    Number of faces shared with processor 48 = 16
    Number of faces shared with processor 52 = 401
    Number of faces shared with processor 56 = 16
    Number of processor patches = 6
    Number of processor faces = 13620
    Number of boundary faces = 6565

Processor 13
    Number of cells = 63741
    Number of points = 71027
    Number of faces shared with processor 9 = 4478
    Number of faces shared with processor 12 = 322
    Number of faces shared with processor 14 = 465
    Number of faces shared with processor 17 = 4596
    Number of faces shared with processor 49 = 2
    Number of faces shared with processor 53 = 1923
    Number of faces shared with processor 57 = 1
    Number of processor patches = 7
    Number of processor faces = 11787
    Number of boundary faces = 2558

Processor 14
    Number of cells = 65579
    Number of points = 72730
    Number of faces shared with processor 10 = 4379
    Number of faces shared with processor 13 = 465
    Number of faces shared with processor 15 = 476
    Number of faces shared with processor 18 = 4371
    Number of faces shared with processor 54 = 2115
    Number of processor patches = 5
    Number of processor faces = 11806
    Number of boundary faces = 2118

Processor 15
    Number of cells = 85269
    Number of points = 97084
    Number of faces shared with processor 10 = 1
    Number of faces shared with processor 11 = 6979
    Number of faces shared with processor 14 = 476
    Number of faces shared with processor 19 = 6786
    Number of faces shared with processor 51 = 2
    Number of faces shared with processor 55 = 1707
    Number of faces shared with processor 59 = 10
    Number of processor patches = 7
    Number of processor faces = 15961
    Number of boundary faces = 4263

Processor 16
    Number of cells = 82978
    Number of points = 93495
    Number of faces shared with processor 12 = 6363
    Number of faces shared with processor 17 = 376
    Number of faces shared with processor 20 = 6288
    Number of faces shared with processor 21 = 2
    Number of faces shared with processor 56 = 433
    Number of processor patches = 5
    Number of processor faces = 13462
    Number of boundary faces = 6955

Processor 17
    Number of cells = 67217
    Number of points = 74718
    Number of faces shared with processor 13 = 4596
    Number of faces shared with processor 16 = 376
    Number of faces shared with processor 18 = 434
    Number of faces shared with processor 21 = 4556
    Number of faces shared with processor 53 = 2
    Number of faces shared with processor 57 = 2031
    Number of processor patches = 6
    Number of processor faces = 11995
    Number of boundary faces = 2687

Processor 18
    Number of cells = 61194
    Number of points = 68160
    Number of faces shared with processor 14 = 4371
    Number of faces shared with processor 17 = 434
    Number of faces shared with processor 19 = 434
    Number of faces shared with processor 22 = 4371
    Number of faces shared with processor 58 = 1974
    Number of processor patches = 5
    Number of processor faces = 11584
    Number of boundary faces = 1974

Processor 19
    Number of cells = 82052
    Number of points = 93675
    Number of faces shared with processor 15 = 6786
    Number of faces shared with processor 18 = 434
    Number of faces shared with processor 23 = 6864
    Number of faces shared with processor 55 = 3
    Number of faces shared with processor 59 = 1663
    Number of processor patches = 5
    Number of processor faces = 15750
    Number of boundary faces = 4111

Processor 20
    Number of cells = 77702
    Number of points = 87941
    Number of faces shared with processor 16 = 6288
    Number of faces shared with processor 21 = 322
    Number of faces shared with processor 24 = 6322
    Number of faces shared with processor 60 = 428
    Number of processor patches = 4
    Number of processor faces = 13360
    Number of boundary faces = 6473

Processor 21
    Number of cells = 65681
    Number of points = 73091
    Number of faces shared with processor 16 = 2
    Number of faces shared with processor 17 = 4556
    Number of faces shared with processor 20 = 322
    Number of faces shared with processor 22 = 465
    Number of faces shared with processor 25 = 4627
    Number of faces shared with processor 57 = 2
    Number of faces shared with processor 61 = 1938
    Number of faces shared with processor 65 = 1
    Number of processor patches = 8
    Number of processor faces = 11913
    Number of boundary faces = 2633

Processor 22
    Number of cells = 65565
    Number of points = 72704
    Number of faces shared with processor 18 = 4371
    Number of faces shared with processor 21 = 465
    Number of faces shared with processor 23 = 465
    Number of faces shared with processor 26 = 4371
    Number of faces shared with processor 62 = 2115
    Number of processor patches = 5
    Number of processor faces = 11787
    Number of boundary faces = 2115

Processor 23
    Number of cells = 85272
    Number of points = 97144
    Number of faces shared with processor 19 = 6864
    Number of faces shared with processor 22 = 465
    Number of faces shared with processor 27 = 7058
    Number of faces shared with processor 63 = 1701
    Number of processor patches = 4
    Number of processor faces = 16088
    Number of boundary faces = 4260

Processor 24
    Number of cells = 83160
    Number of points = 93722
    Number of faces shared with processor 20 = 6322
    Number of faces shared with processor 25 = 345
    Number of faces shared with processor 28 = 6400
    Number of faces shared with processor 60 = 16
    Number of faces shared with processor 64 = 408
    Number of processor patches = 5
    Number of processor faces = 13491
    Number of boundary faces = 6917

Processor 25
    Number of cells = 67201
    Number of points = 74675
    Number of faces shared with processor 21 = 4627
    Number of faces shared with processor 24 = 345
    Number of faces shared with processor 26 = 437
    Number of faces shared with processor 29 = 4609
    Number of faces shared with processor 61 = 2
    Number of faces shared with processor 65 = 1973
    Number of processor patches = 6
    Number of processor faces = 11993
    Number of boundary faces = 2698

Processor 26
    Number of cells = 61203
    Number of points = 68178
    Number of faces shared with processor 22 = 4371
    Number of faces shared with processor 25 = 437
    Number of faces shared with processor 27 = 434
    Number of faces shared with processor 30 = 4376
    Number of faces shared with processor 66 = 1982
    Number of processor patches = 5
    Number of processor faces = 11600
    Number of boundary faces = 1974

Processor 27
    Number of cells = 83495
    Number of points = 95573
    Number of faces shared with processor 23 = 7058
    Number of faces shared with processor 26 = 434
    Number of faces shared with processor 31 = 6995
    Number of faces shared with processor 63 = 19
    Number of faces shared with processor 67 = 1728
    Number of faces shared with processor 71 = 19
    Number of processor patches = 6
    Number of processor faces = 16253
    Number of boundary faces = 4138

Processor 28
    Number of cells = 101038
    Number of points = 113541
    Number of faces shared with processor 24 = 6400
    Number of faces shared with processor 29 = 464
    Number of faces shared with processor 32 = 7563
    Number of faces shared with processor 36 = 480
    Number of faces shared with processor 68 = 1082
    Number of faces shared with processor 72 = 16
    Number of processor patches = 6
    Number of processor faces = 16005
    Number of boundary faces = 9694

Processor 29
    Number of cells = 61116
    Number of points = 68550
    Number of faces shared with processor 25 = 4609
    Number of faces shared with processor 28 = 464
    Number of faces shared with processor 30 = 416
    Number of faces shared with processor 33 = 4685
    Number of faces shared with processor 69 = 1854
    Number of faces shared with processor 73 = 1
    Number of processor patches = 6
    Number of processor faces = 12029
    Number of boundary faces = 2573

Processor 30
    Number of cells = 57070
    Number of points = 63908
    Number of faces shared with processor 26 = 4376
    Number of faces shared with processor 29 = 416
    Number of faces shared with processor 31 = 403
    Number of faces shared with processor 34 = 4402
    Number of faces shared with processor 66 = 2
    Number of faces shared with processor 70 = 1870
    Number of processor patches = 6
    Number of processor faces = 11469
    Number of boundary faces = 1833

Processor 31
    Number of cells = 73391
    Number of points = 84590
    Number of faces shared with processor 27 = 6995
    Number of faces shared with processor 30 = 403
    Number of faces shared with processor 35 = 6750
    Number of faces shared with processor 39 = 76
    Number of faces shared with processor 71 = 1451
    Number of faces shared with processor 75 = 18
    Number of processor patches = 6
    Number of processor faces = 15693
    Number of boundary faces = 3658

Processor 32
    Number of cells = 87835
    Number of points = 99769
    Number of faces shared with processor 28 = 7563
    Number of faces shared with processor 33 = 296
    Number of faces shared with processor 36 = 5384
    Number of faces shared with processor 72 = 2197
    Number of faces shared with processor 76 = 1
    Number of processor patches = 5
    Number of processor faces = 15441
    Number of boundary faces = 5451

Processor 33
    Number of cells = 59379
    Number of points = 66632
    Number of faces shared with processor 29 = 4685
    Number of faces shared with processor 32 = 296
    Number of faces shared with processor 34 = 436
    Number of faces shared with processor 37 = 4469
    Number of faces shared with processor 38 = 1
    Number of faces shared with processor 73 = 1797
    Number of faces shared with processor 74 = 1
    Number of processor patches = 7
    Number of processor faces = 11685
    Number of boundary faces = 1939

Processor 34
    Number of cells = 57463
    Number of points = 64348
    Number of faces shared with processor 30 = 4402
    Number of faces shared with processor 33 = 436
    Number of faces shared with processor 35 = 403
    Number of faces shared with processor 38 = 4438
    Number of faces shared with processor 70 = 2
    Number of faces shared with processor 74 = 1880
    Number of processor patches = 6
    Number of processor faces = 11561
    Number of boundary faces = 1833

Processor 35
    Number of cells = 80335
    Number of points = 91812
    Number of faces shared with processor 31 = 6750
    Number of faces shared with processor 34 = 403
    Number of faces shared with processor 39 = 6790
    Number of faces shared with processor 75 = 1595
    Number of faces shared with processor 79 = 2
    Number of processor patches = 5
    Number of processor faces = 15540
    Number of boundary faces = 4018

Processor 36
    Number of cells = 127007
    Number of points = 137785
    Number of faces shared with processor 28 = 480
    Number of faces shared with processor 32 = 5384
    Number of faces shared with processor 37 = 777
    Number of faces shared with processor 72 = 16
    Number of faces shared with processor 76 = 3963
    Number of processor patches = 5
    Number of processor faces = 10620
    Number of boundary faces = 8834

Processor 37
    Number of cells = 72427
    Number of points = 80175
    Number of faces shared with processor 33 = 4469
    Number of faces shared with processor 36 = 777
    Number of faces shared with processor 38 = 887
    Number of faces shared with processor 77 = 1901
    Number of processor patches = 4
    Number of processor faces = 8034
    Number of boundary faces = 4322

Processor 38
    Number of cells = 72207
    Number of points = 79509
    Number of faces shared with processor 33 = 1
    Number of faces shared with processor 34 = 4438
    Number of faces shared with processor 37 = 887
    Number of faces shared with processor 39 = 840
    Number of faces shared with processor 74 = 2
    Number of faces shared with processor 78 = 1979
    Number of processor patches = 6
    Number of processor faces = 8147
    Number of boundary faces = 4288

Processor 39
    Number of cells = 142865
    Number of points = 154199
    Number of faces shared with processor 31 = 76
    Number of faces shared with processor 35 = 6790
    Number of faces shared with processor 38 = 840
    Number of faces shared with processor 75 = 12
    Number of faces shared with processor 78 = 10
    Number of faces shared with processor 79 = 4306
    Number of processor patches = 6
    Number of processor faces = 12034
    Number of boundary faces = 9507

Processor 40
    Number of cells = 48842
    Number of points = 59962
    Number of faces shared with processor 0 = 3911
    Number of faces shared with processor 41 = 933
    Number of faces shared with processor 44 = 5077
    Number of faces shared with processor 45 = 1
    Number of faces shared with processor 48 = 257
    Number of processor patches = 5
    Number of processor faces = 10179
    Number of boundary faces = 1945

Processor 41
    Number of cells = 42279
    Number of points = 53598
    Number of faces shared with processor 1 = 2030
    Number of faces shared with processor 2 = 1
    Number of faces shared with processor 5 = 1
    Number of faces shared with processor 40 = 933
    Number of faces shared with processor 42 = 1038
    Number of faces shared with processor 45 = 8304
    Number of faces shared with processor 46 = 2
    Number of faces shared with processor 49 = 45
    Number of processor patches = 8
    Number of processor faces = 12354
    Number of boundary faces = 234

Processor 42
    Number of cells = 42581
    Number of points = 54382
    Number of faces shared with processor 2 = 2037
    Number of faces shared with processor 3 = 11
    Number of faces shared with processor 41 = 1038
    Number of faces shared with processor 43 = 1032
    Number of faces shared with processor 46 = 8687
    Number of faces shared with processor 47 = 1
    Number of faces shared with processor 50 = 40
    Number of processor patches = 7
    Number of processor faces = 12846
    Number of boundary faces = 208

Processor 43
    Number of cells = 81034
    Number of points = 94905
    Number of faces shared with processor 3 = 4626
    Number of faces shared with processor 7 = 4
    Number of faces shared with processor 42 = 1032
    Number of faces shared with processor 46 = 1
    Number of faces shared with processor 47 = 7554
    Number of faces shared with processor 51 = 363
    Number of processor patches = 6
    Number of processor faces = 13580
    Number of boundary faces = 1616

Processor 44
    Number of cells = 75847
    Number of points = 90411
    Number of faces shared with processor 0 = 1
    Number of faces shared with processor 4 = 1824
    Number of faces shared with processor 5 = 2
    Number of faces shared with processor 8 = 16
    Number of faces shared with processor 40 = 5077
    Number of faces shared with processor 45 = 811
    Number of faces shared with processor 48 = 9826
    Number of faces shared with processor 52 = 133
    Number of processor patches = 8
    Number of processor faces = 17690
    Number of boundary faces = 2933

Processor 45
    Number of cells = 107801
    Number of points = 120250
    Number of faces shared with processor 5 = 1979
    Number of faces shared with processor 40 = 1
    Number of faces shared with processor 41 = 8304
    Number of faces shared with processor 44 = 811
    Number of faces shared with processor 46 = 817
    Number of faces shared with processor 48 = 1
    Number of faces shared with processor 49 = 8499
    Number of processor patches = 7
    Number of processor faces = 20412
    Number of boundary faces = 1247

Processor 46
    Number of cells = 109102
    Number of points = 120935
    Number of faces shared with processor 6 = 1977
    Number of faces shared with processor 41 = 2
    Number of faces shared with processor 42 = 8687
    Number of faces shared with processor 43 = 1
    Number of faces shared with processor 45 = 817
    Number of faces shared with processor 47 = 865
    Number of faces shared with processor 49 = 2
    Number of faces shared with processor 50 = 8802
    Number of faces shared with processor 51 = 2
    Number of processor patches = 9
    Number of processor faces = 21155
    Number of boundary faces = 0

Processor 47
    Number of cells = 60492
    Number of points = 70870
    Number of faces shared with processor 3 = 1
    Number of faces shared with processor 6 = 1
    Number of faces shared with processor 7 = 1519
    Number of faces shared with processor 11 = 3
    Number of faces shared with processor 42 = 1
    Number of faces shared with processor 43 = 7554
    Number of faces shared with processor 46 = 865
    Number of faces shared with processor 51 = 7487
    Number of faces shared with processor 55 = 70
    Number of processor patches = 9
    Number of processor faces = 17501
    Number of boundary faces = 0

Processor 48
    Number of cells = 86561
    Number of points = 97512
    Number of faces shared with processor 8 = 1495
    Number of faces shared with processor 12 = 16
    Number of faces shared with processor 40 = 257
    Number of faces shared with processor 44 = 9826
    Number of faces shared with processor 45 = 1
    Number of faces shared with processor 49 = 239
    Number of faces shared with processor 52 = 6237
    Number of processor patches = 7
    Number of processor faces = 18071
    Number of boundary faces = 8134

Processor 49
    Number of cells = 99679
    Number of points = 111192
    Number of faces shared with processor 5 = 1
    Number of faces shared with processor 9 = 1790
    Number of faces shared with processor 13 = 2
    Number of faces shared with processor 41 = 45
    Number of faces shared with processor 45 = 8499
    Number of faces shared with processor 46 = 2
    Number of faces shared with processor 48 = 239
    Number of faces shared with processor 50 = 794
    Number of faces shared with processor 53 = 8622
    Number of processor patches = 9
    Number of processor faces = 19994
    Number of boundary faces = 875

Processor 50
    Number of cells = 95948
    Number of points = 107548
    Number of faces shared with processor 10 = 1692
    Number of faces shared with processor 42 = 40
    Number of faces shared with processor 46 = 8802
    Number of faces shared with processor 49 = 794
    Number of faces shared with processor 51 = 740
    Number of faces shared with processor 53 = 1
    Number of faces shared with processor 54 = 8744
    Number of processor patches = 7
    Number of processor faces = 20813
    Number of boundary faces = 8

Processor 51
    Number of cells = 56277
    Number of points = 66631
    Number of faces shared with processor 7 = 1
    Number of faces shared with processor 11 = 1557
    Number of faces shared with processor 15 = 2
    Number of faces shared with processor 43 = 363
    Number of faces shared with processor 46 = 2
    Number of faces shared with processor 47 = 7487
    Number of faces shared with processor 50 = 740
    Number of faces shared with processor 55 = 7625
    Number of processor patches = 8
    Number of processor faces = 17777
    Number of boundary faces = 72

Processor 52
    Number of cells = 49170
    Number of points = 59240
    Number of faces shared with processor 12 = 401
    Number of faces shared with processor 44 = 133
    Number of faces shared with processor 48 = 6237
    Number of faces shared with processor 53 = 278
    Number of faces shared with processor 56 = 5888
    Number of faces shared with processor 64 = 133
    Number of processor patches = 6
    Number of processor faces = 13070
    Number of boundary faces = 3250

Processor 53
    Number of cells = 107453
    Number of points = 119337
    Number of faces shared with processor 13 = 1923
    Number of faces shared with processor 17 = 2
    Number of faces shared with processor 49 = 8622
    Number of faces shared with processor 50 = 1
    Number of faces shared with processor 52 = 278
    Number of faces shared with processor 54 = 869
    Number of faces shared with processor 57 = 8627
    Number of processor patches = 7
    Number of processor faces = 20322
    Number of boundary faces = 948

Processor 54
    Number of cells = 116326
    Number of points = 128255
    Number of faces shared with processor 14 = 2115
    Number of faces shared with processor 50 = 8744
    Number of faces shared with processor 53 = 869
    Number of faces shared with processor 55 = 909
    Number of faces shared with processor 57 = 2
    Number of faces shared with processor 58 = 8776
    Number of processor patches = 6
    Number of processor faces = 21415
    Number of boundary faces = 8

Processor 55
    Number of cells = 64749
    Number of points = 75346
    Number of faces shared with processor 11 = 1
    Number of faces shared with processor 15 = 1707
    Number of faces shared with processor 19 = 3
    Number of faces shared with processor 47 = 70
    Number of faces shared with processor 51 = 7625
    Number of faces shared with processor 54 = 909
    Number of faces shared with processor 58 = 1
    Number of faces shared with processor 59 = 7639
    Number of faces shared with processor 67 = 70
    Number of processor patches = 9
    Number of processor faces = 18025
    Number of boundary faces = 72

Processor 56
    Number of cells = 49579
    Number of points = 59178
    Number of faces shared with processor 12 = 16
    Number of faces shared with processor 16 = 433
    Number of faces shared with processor 52 = 5888
    Number of faces shared with processor 57 = 289
    Number of faces shared with processor 60 = 5310
    Number of processor patches = 5
    Number of processor faces = 11936
    Number of boundary faces = 3352

Processor 57
    Number of cells = 113512
    Number of points = 125323
    Number of faces shared with processor 13 = 1
    Number of faces shared with processor 17 = 2031
    Number of faces shared with processor 21 = 2
    Number of faces shared with processor 53 = 8627
    Number of faces shared with processor 54 = 2
    Number of faces shared with processor 56 = 289
    Number of faces shared with processor 58 = 927
    Number of faces shared with processor 61 = 8275
    Number of faces shared with processor 62 = 1
    Number of processor patches = 9
    Number of processor faces = 20155
    Number of boundary faces = 1030

Processor 58
    Number of cells = 111375
    Number of points = 123210
    Number of faces shared with processor 18 = 1974
    Number of faces shared with processor 54 = 8776
    Number of faces shared with processor 55 = 1
    Number of faces shared with processor 57 = 927
    Number of faces shared with processor 59 = 866
    Number of faces shared with processor 62 = 8575
    Number of processor patches = 6
    Number of processor faces = 21119
    Number of boundary faces = 8

Processor 59
    Number of cells = 62807
    Number of points = 73275
    Number of faces shared with processor 15 = 10
    Number of faces shared with processor 19 = 1663
    Number of faces shared with processor 55 = 7639
    Number of faces shared with processor 58 = 866
    Number of faces shared with processor 63 = 7395
    Number of processor patches = 5
    Number of processor faces = 17573
    Number of boundary faces = 72

Processor 60
    Number of cells = 46884
    Number of points = 56196
    Number of faces shared with processor 20 = 428
    Number of faces shared with processor 24 = 16
    Number of faces shared with processor 56 = 5310
    Number of faces shared with processor 61 = 278
    Number of faces shared with processor 64 = 5584
    Number of processor patches = 5
    Number of processor faces = 11616
    Number of boundary faces = 3111

Processor 61
    Number of cells = 106285
    Number of points = 117877
    Number of faces shared with processor 21 = 1938
    Number of faces shared with processor 25 = 2
    Number of faces shared with processor 57 = 8275
    Number of faces shared with processor 60 = 278
    Number of faces shared with processor 62 = 927
    Number of faces shared with processor 65 = 8331
    Number of faces shared with processor 66 = 1
    Number of processor patches = 7
    Number of processor faces = 19752
    Number of boundary faces = 965

Processor 62
    Number of cells = 117880
    Number of points = 129833
    Number of faces shared with processor 22 = 2115
    Number of faces shared with processor 57 = 1
    Number of faces shared with processor 58 = 8575
    Number of faces shared with processor 61 = 927
    Number of faces shared with processor 63 = 919
    Number of faces shared with processor 65 = 1
    Number of faces shared with processor 66 = 8816
    Number of faces shared with processor 67 = 1
    Number of processor patches = 8
    Number of processor faces = 21355
    Number of boundary faces = 8

Processor 63
    Number of cells = 65445
    Number of points = 76007
    Number of faces shared with processor 23 = 1701
    Number of faces shared with processor 27 = 19
    Number of faces shared with processor 59 = 7395
    Number of faces shared with processor 62 = 919
    Number of faces shared with processor 67 = 7727
    Number of processor patches = 5
    Number of processor faces = 17761
    Number of boundary faces = 72

Processor 64
    Number of cells = 48749
    Number of points = 58368
    Number of faces shared with processor 24 = 408
    Number of faces shared with processor 52 = 133
    Number of faces shared with processor 60 = 5584
    Number of faces shared with processor 65 = 280
    Number of faces shared with processor 68 = 5613
    Number of faces shared with processor 72 = 133
    Number of processor patches = 6
    Number of processor faces = 12151
    Number of boundary faces = 3327

Processor 65
    Number of cells = 110931
    Number of points = 122628
    Number of faces shared with processor 21 = 1
    Number of faces shared with processor 25 = 1973
    Number of faces shared with processor 61 = 8331
    Number of faces shared with processor 62 = 1
    Number of faces shared with processor 64 = 280
    Number of faces shared with processor 66 = 894
    Number of faces shared with processor 69 = 8393
    Number of faces shared with processor 70 = 1
    Number of processor patches = 8
    Number of processor faces = 19874
    Number of boundary faces = 1046

Processor 66
    Number of cells = 111005
    Number of points = 123036
    Number of faces shared with processor 26 = 1982
    Number of faces shared with processor 30 = 2
    Number of faces shared with processor 61 = 1
    Number of faces shared with processor 62 = 8816
    Number of faces shared with processor 65 = 894
    Number of faces shared with processor 67 = 864
    Number of faces shared with processor 70 = 8845
    Number of processor patches = 7
    Number of processor faces = 21404
    Number of boundary faces = 8

Processor 67
    Number of cells = 64969
    Number of points = 75743
    Number of faces shared with processor 27 = 1728
    Number of faces shared with processor 55 = 70
    Number of faces shared with processor 62 = 1
    Number of faces shared with processor 63 = 7727
    Number of faces shared with processor 66 = 864
    Number of faces shared with processor 70 = 1
    Number of faces shared with processor 71 = 7767
    Number of faces shared with processor 75 = 70
    Number of processor patches = 8
    Number of processor faces = 18228
    Number of boundary faces = 72

Processor 68
    Number of cells = 79567
    Number of points = 92333
    Number of faces shared with processor 28 = 1082
    Number of faces shared with processor 64 = 5613
    Number of faces shared with processor 69 = 745
    Number of faces shared with processor 72 = 10870
    Number of faces shared with processor 73 = 1
    Number of faces shared with processor 76 = 370
    Number of processor patches = 6
    Number of processor faces = 18681
    Number of boundary faces = 8106

Processor 69
    Number of cells = 100681
    Number of points = 112926
    Number of faces shared with processor 29 = 1854
    Number of faces shared with processor 65 = 8393
    Number of faces shared with processor 68 = 745
    Number of faces shared with processor 70 = 791
    Number of faces shared with processor 73 = 8750
    Number of faces shared with processor 74 = 2
    Number of faces shared with processor 77 = 45
    Number of processor patches = 7
    Number of processor faces = 20580
    Number of boundary faces = 1645

Processor 70
    Number of cells = 102043
    Number of points = 113612
    Number of faces shared with processor 30 = 1870
    Number of faces shared with processor 34 = 2
    Number of faces shared with processor 65 = 1
    Number of faces shared with processor 66 = 8845
    Number of faces shared with processor 67 = 1
    Number of faces shared with processor 69 = 791
    Number of faces shared with processor 71 = 784
    Number of faces shared with processor 74 = 8630
    Number of faces shared with processor 78 = 40
    Number of processor patches = 9
    Number of processor faces = 20964
    Number of boundary faces = 8

Processor 71
    Number of cells = 55807
    Number of points = 66069
    Number of faces shared with processor 27 = 19
    Number of faces shared with processor 31 = 1451
    Number of faces shared with processor 67 = 7767
    Number of faces shared with processor 70 = 784
    Number of faces shared with processor 74 = 2
    Number of faces shared with processor 75 = 7415
    Number of faces shared with processor 79 = 306
    Number of processor patches = 7
    Number of processor faces = 17744
    Number of boundary faces = 72

Processor 72
    Number of cells = 84087
    Number of points = 98513
    Number of faces shared with processor 28 = 16
    Number of faces shared with processor 32 = 2197
    Number of faces shared with processor 36 = 16
    Number of faces shared with processor 64 = 133
    Number of faces shared with processor 68 = 10870
    Number of faces shared with processor 73 = 338
    Number of faces shared with processor 76 = 5152
    Number of processor patches = 7
    Number of processor faces = 18722
    Number of boundary faces = 3223

Processor 73
    Number of cells = 98833
    Number of points = 110413
    Number of faces shared with processor 29 = 1
    Number of faces shared with processor 33 = 1797
    Number of faces shared with processor 68 = 1
    Number of faces shared with processor 69 = 8750
    Number of faces shared with processor 72 = 338
    Number of faces shared with processor 74 = 790
    Number of faces shared with processor 76 = 1
    Number of faces shared with processor 77 = 8123
    Number of processor patches = 8
    Number of processor faces = 19801
    Number of boundary faces = 0

Processor 74
    Number of cells = 102833
    Number of points = 114483
    Number of faces shared with processor 33 = 1
    Number of faces shared with processor 34 = 1880
    Number of faces shared with processor 38 = 2
    Number of faces shared with processor 69 = 2
    Number of faces shared with processor 70 = 8630
    Number of faces shared with processor 71 = 2
    Number of faces shared with processor 73 = 790
    Number of faces shared with processor 75 = 806
    Number of faces shared with processor 77 = 1
    Number of faces shared with processor 78 = 8678
    Number of faces shared with processor 79 = 1
    Number of processor patches = 11
    Number of processor faces = 20793
    Number of boundary faces = 0

Processor 75
    Number of cells = 59948
    Number of points = 70229
    Number of faces shared with processor 31 = 18
    Number of faces shared with processor 35 = 1595
    Number of faces shared with processor 39 = 12
    Number of faces shared with processor 67 = 70
    Number of faces shared with processor 71 = 7415
    Number of faces shared with processor 74 = 806
    Number of faces shared with processor 79 = 7364
    Number of processor patches = 7
    Number of processor faces = 17280
    Number of boundary faces = 23

Processor 76
    Number of cells = 54145
    Number of points = 65587
    Number of faces shared with processor 32 = 1
    Number of faces shared with processor 36 = 3963
    Number of faces shared with processor 68 = 370
    Number of faces shared with processor 72 = 5152
    Number of faces shared with processor 73 = 1
    Number of faces shared with processor 77 = 933
    Number of processor patches = 6
    Number of processor faces = 10420
    Number of boundary faces = 2006

Processor 77
    Number of cells = 42098
    Number of points = 53232
    Number of faces shared with processor 37 = 1901
    Number of faces shared with processor 69 = 45
    Number of faces shared with processor 73 = 8123
    Number of faces shared with processor 74 = 1
    Number of faces shared with processor 76 = 933
    Number of faces shared with processor 78 = 985
    Number of processor patches = 6
    Number of processor faces = 11988
    Number of boundary faces = 234

Processor 78
    Number of cells = 42570
    Number of points = 54307
    Number of faces shared with processor 38 = 1979
    Number of faces shared with processor 39 = 10
    Number of faces shared with processor 70 = 40
    Number of faces shared with processor 74 = 8678
    Number of faces shared with processor 77 = 985
    Number of faces shared with processor 79 = 1028
    Number of processor patches = 6
    Number of processor faces = 12720
    Number of boundary faces = 208

Processor 79
    Number of cells = 77394
    Number of points = 90966
    Number of faces shared with processor 35 = 2
    Number of faces shared with processor 39 = 4306
    Number of faces shared with processor 71 = 306
    Number of faces shared with processor 74 = 1
    Number of faces shared with processor 75 = 7364
    Number of faces shared with processor 78 = 1028
    Number of processor patches = 6
    Number of processor faces = 13007
    Number of boundary faces = 1593

Number of processor faces = 599805
Max number of cells = 145498 (84.55032521892663% above average 78839.2)
Max number of processor patches = 11 (71.87499999999999% above average 6.4)
Max number of faces between processors = 21415 (42.813080917965% above average 14995.125)

Time = 0

Processor 0: field transfer
--> FOAM Warning : 
    From void* Foam::dlLibraryTable::openLibrary(const Foam::fileName&, bool)
    in file db/dynamicLibrary/dlLibraryTable/dlLibraryTable.C at line 188
    Could not load "libpetscFoam.so"
libpetscFoam.so: cannot open shared object file: No such file or directory
Processor 1: field transfer
--> FOAM Warning : 
    From void* Foam::dlLibraryTable::openLibrary(const Foam::fileName&, bool)
    in file db/dynamicLibrary/dlLibraryTable/dlLibraryTable.C at line 188
    Could not load "libpetscFoam.so"
libpetscFoam.so: cannot open shared object file: No such file or directory
Processor 2: field transfer
--> FOAM Warning : 
    From void* Foam::dlLibraryTable::openLibrary(const Foam::fileName&, bool)
    in file db/dynamicLibrary/dlLibraryTable/dlLibraryTable.C at line 188
    Could not load "libpetscFoam.so"
libpetscFoam.so: cannot open shared object file: No such file or directory
Processor 3: field transfer
--> FOAM Warning : 
    From void* Foam::dlLibraryTable::openLibrary(const Foam::fileName&, bool)
    in file db/dynamicLibrary/dlLibraryTable/dlLibraryTable.C at line 188
    Could not load "libpetscFoam.so"
libpetscFoam.so: cannot open shared object file: No such file or directory
Processor 4: field transfer
--> FOAM Warning : 
    From void* Foam::dlLibraryTable::openLibrary(const Foam::fileName&, bool)
    in file db/dynamicLibrary/dlLibraryTable/dlLibraryTable.C at line 188
    Could not load "libpetscFoam.so"
libpetscFoam.so: cannot open shared object file: No such file or directory
Processor 5: field transfer
--> FOAM Warning : 
    From void* Foam::dlLibraryTable::openLibrary(const Foam::fileName&, bool)
    in file db/dynamicLibrary/dlLibraryTable/dlLibraryTable.C at line 188
    Could not load "libpetscFoam.so"
libpetscFoam.so: cannot open shared object file: No such file or directory
Processor 6: field transfer
--> FOAM Warning : 
    From void* Foam::dlLibraryTable::openLibrary(const Foam::fileName&, bool)
    in file db/dynamicLibrary/dlLibraryTable/dlLibraryTable.C at line 188
    Could not load "libpetscFoam.so"
libpetscFoam.so: cannot open shared object file: No such file or directory
Processor 7: field transfer
--> FOAM Warning : 
    From void* Foam::dlLibraryTable::openLibrary(const Foam::fileName&, bool)
    in file db/dynamicLibrary/dlLibraryTable/dlLibraryTable.C at line 188
    Could not load "libpetscFoam.so"
libpetscFoam.so: cannot open shared object file: No such file or directory
Processor 8: field transfer
--> FOAM Warning : 
    From void* Foam::dlLibraryTable::openLibrary(const Foam::fileName&, bool)
    in file db/dynamicLibrary/dlLibraryTable/dlLibraryTable.C at line 188
    Could not load "libpetscFoam.so"
libpetscFoam.so: cannot open shared object file: No such file or directory
Processor 9: field transfer
--> FOAM Warning : 
    From void* Foam::dlLibraryTable::openLibrary(const Foam::fileName&, bool)
    in file db/dynamicLibrary/dlLibraryTable/dlLibraryTable.C at line 188
    Could not load "libpetscFoam.so"
libpetscFoam.so: cannot open shared object file: No such file or directory
Processor 10: field transfer
--> FOAM Warning : 
    From void* Foam::dlLibraryTable::openLibrary(const Foam::fileName&, bool)
    in file db/dynamicLibrary/dlLibraryTable/dlLibraryTable.C at line 188
    Could not load "libpetscFoam.so"
libpetscFoam.so: cannot open shared object file: No such file or directory
Processor 11: field transfer
--> FOAM Warning : 
    From void* Foam::dlLibraryTable::openLibrary(const Foam::fileName&, bool)
    in file db/dynamicLibrary/dlLibraryTable/dlLibraryTable.C at line 188
    Could not load "libpetscFoam.so"
libpetscFoam.so: cannot open shared object file: No such file or directory
Processor 12: field transfer
--> FOAM Warning : 
    From void* Foam::dlLibraryTable::openLibrary(const Foam::fileName&, bool)
    in file db/dynamicLibrary/dlLibraryTable/dlLibraryTable.C at line 188
    Could not load "libpetscFoam.so"
libpetscFoam.so: cannot open shared object file: No such file or directory
Processor 13: field transfer
--> FOAM Warning : 
    From void* Foam::dlLibraryTable::openLibrary(const Foam::fileName&, bool)
    in file db/dynamicLibrary/dlLibraryTable/dlLibraryTable.C at line 188
    Could not load "libpetscFoam.so"
libpetscFoam.so: cannot open shared object file: No such file or directory
Processor 14: field transfer
--> FOAM Warning : 
    From void* Foam::dlLibraryTable::openLibrary(const Foam::fileName&, bool)
    in file db/dynamicLibrary/dlLibraryTable/dlLibraryTable.C at line 188
    Could not load "libpetscFoam.so"
libpetscFoam.so: cannot open shared object file: No such file or directory
Processor 15: field transfer
--> FOAM Warning : 
    From void* Foam::dlLibraryTable::openLibrary(const Foam::fileName&, bool)
    in file db/dynamicLibrary/dlLibraryTable/dlLibraryTable.C at line 188
    Could not load "libpetscFoam.so"
libpetscFoam.so: cannot open shared object file: No such file or directory
Processor 16: field transfer
--> FOAM Warning : 
    From void* Foam::dlLibraryTable::openLibrary(const Foam::fileName&, bool)
    in file db/dynamicLibrary/dlLibraryTable/dlLibraryTable.C at line 188
    Could not load "libpetscFoam.so"
libpetscFoam.so: cannot open shared object file: No such file or directory
Processor 17: field transfer
--> FOAM Warning : 
    From void* Foam::dlLibraryTable::openLibrary(const Foam::fileName&, bool)
    in file db/dynamicLibrary/dlLibraryTable/dlLibraryTable.C at line 188
    Could not load "libpetscFoam.so"
libpetscFoam.so: cannot open shared object file: No such file or directory
Processor 18: field transfer
--> FOAM Warning : 
    From void* Foam::dlLibraryTable::openLibrary(const Foam::fileName&, bool)
    in file db/dynamicLibrary/dlLibraryTable/dlLibraryTable.C at line 188
    Could not load "libpetscFoam.so"
libpetscFoam.so: cannot open shared object file: No such file or directory
Processor 19: field transfer
--> FOAM Warning : 
    From void* Foam::dlLibraryTable::openLibrary(const Foam::fileName&, bool)
    in file db/dynamicLibrary/dlLibraryTable/dlLibraryTable.C at line 188
    Could not load "libpetscFoam.so"
libpetscFoam.so: cannot open shared object file: No such file or directory
Processor 20: field transfer
--> FOAM Warning : 
    From void* Foam::dlLibraryTable::openLibrary(const Foam::fileName&, bool)
    in file db/dynamicLibrary/dlLibraryTable/dlLibraryTable.C at line 188
    Could not load "libpetscFoam.so"
libpetscFoam.so: cannot open shared object file: No such file or directory
Processor 21: field transfer
--> FOAM Warning : 
    From void* Foam::dlLibraryTable::openLibrary(const Foam::fileName&, bool)
    in file db/dynamicLibrary/dlLibraryTable/dlLibraryTable.C at line 188
    Could not load "libpetscFoam.so"
libpetscFoam.so: cannot open shared object file: No such file or directory
Processor 22: field transfer
--> FOAM Warning : 
    From void* Foam::dlLibraryTable::openLibrary(const Foam::fileName&, bool)
    in file db/dynamicLibrary/dlLibraryTable/dlLibraryTable.C at line 188
    Could not load "libpetscFoam.so"
libpetscFoam.so: cannot open shared object file: No such file or directory
Processor 23: field transfer
--> FOAM Warning : 
    From void* Foam::dlLibraryTable::openLibrary(const Foam::fileName&, bool)
    in file db/dynamicLibrary/dlLibraryTable/dlLibraryTable.C at line 188
    Could not load "libpetscFoam.so"
libpetscFoam.so: cannot open shared object file: No such file or directory
Processor 24: field transfer
--> FOAM Warning : 
    From void* Foam::dlLibraryTable::openLibrary(const Foam::fileName&, bool)
    in file db/dynamicLibrary/dlLibraryTable/dlLibraryTable.C at line 188
    Could not load "libpetscFoam.so"
libpetscFoam.so: cannot open shared object file: No such file or directory
Processor 25: field transfer
--> FOAM Warning : 
    From void* Foam::dlLibraryTable::openLibrary(const Foam::fileName&, bool)
    in file db/dynamicLibrary/dlLibraryTable/dlLibraryTable.C at line 188
    Could not load "libpetscFoam.so"
libpetscFoam.so: cannot open shared object file: No such file or directory
Processor 26: field transfer
--> FOAM Warning : 
    From void* Foam::dlLibraryTable::openLibrary(const Foam::fileName&, bool)
    in file db/dynamicLibrary/dlLibraryTable/dlLibraryTable.C at line 188
    Could not load "libpetscFoam.so"
libpetscFoam.so: cannot open shared object file: No such file or directory
Processor 27: field transfer
--> FOAM Warning : 
    From void* Foam::dlLibraryTable::openLibrary(const Foam::fileName&, bool)
    in file db/dynamicLibrary/dlLibraryTable/dlLibraryTable.C at line 188
    Could not load "libpetscFoam.so"
libpetscFoam.so: cannot open shared object file: No such file or directory
Processor 28: field transfer
--> FOAM Warning : 
    From void* Foam::dlLibraryTable::openLibrary(const Foam::fileName&, bool)
    in file db/dynamicLibrary/dlLibraryTable/dlLibraryTable.C at line 188
    Could not load "libpetscFoam.so"
libpetscFoam.so: cannot open shared object file: No such file or directory
Processor 29: field transfer
--> FOAM Warning : 
    From void* Foam::dlLibraryTable::openLibrary(const Foam::fileName&, bool)
    in file db/dynamicLibrary/dlLibraryTable/dlLibraryTable.C at line 188
    Could not load "libpetscFoam.so"
libpetscFoam.so: cannot open shared object file: No such file or directory
Processor 30: field transfer
--> FOAM Warning : 
    From void* Foam::dlLibraryTable::openLibrary(const Foam::fileName&, bool)
    in file db/dynamicLibrary/dlLibraryTable/dlLibraryTable.C at line 188
    Could not load "libpetscFoam.so"
libpetscFoam.so: cannot open shared object file: No such file or directory
Processor 31: field transfer
--> FOAM Warning : 
    From void* Foam::dlLibraryTable::openLibrary(const Foam::fileName&, bool)
    in file db/dynamicLibrary/dlLibraryTable/dlLibraryTable.C at line 188
    Could not load "libpetscFoam.so"
libpetscFoam.so: cannot open shared object file: No such file or directory
Processor 32: field transfer
--> FOAM Warning : 
    From void* Foam::dlLibraryTable::openLibrary(const Foam::fileName&, bool)
    in file db/dynamicLibrary/dlLibraryTable/dlLibraryTable.C at line 188
    Could not load "libpetscFoam.so"
libpetscFoam.so: cannot open shared object file: No such file or directory
Processor 33: field transfer
--> FOAM Warning : 
    From void* Foam::dlLibraryTable::openLibrary(const Foam::fileName&, bool)
    in file db/dynamicLibrary/dlLibraryTable/dlLibraryTable.C at line 188
    Could not load "libpetscFoam.so"
libpetscFoam.so: cannot open shared object file: No such file or directory
Processor 34: field transfer
--> FOAM Warning : 
    From void* Foam::dlLibraryTable::openLibrary(const Foam::fileName&, bool)
    in file db/dynamicLibrary/dlLibraryTable/dlLibraryTable.C at line 188
    Could not load "libpetscFoam.so"
libpetscFoam.so: cannot open shared object file: No such file or directory
Processor 35: field transfer
--> FOAM Warning : 
    From void* Foam::dlLibraryTable::openLibrary(const Foam::fileName&, bool)
    in file db/dynamicLibrary/dlLibraryTable/dlLibraryTable.C at line 188
    Could not load "libpetscFoam.so"
libpetscFoam.so: cannot open shared object file: No such file or directory
Processor 36: field transfer
--> FOAM Warning : 
    From void* Foam::dlLibraryTable::openLibrary(const Foam::fileName&, bool)
    in file db/dynamicLibrary/dlLibraryTable/dlLibraryTable.C at line 188
    Could not load "libpetscFoam.so"
libpetscFoam.so: cannot open shared object file: No such file or directory
Processor 37: field transfer
--> FOAM Warning : 
    From void* Foam::dlLibraryTable::openLibrary(const Foam::fileName&, bool)
    in file db/dynamicLibrary/dlLibraryTable/dlLibraryTable.C at line 188
    Could not load "libpetscFoam.so"
libpetscFoam.so: cannot open shared object file: No such file or directory
Processor 38: field transfer
--> FOAM Warning : 
    From void* Foam::dlLibraryTable::openLibrary(const Foam::fileName&, bool)
    in file db/dynamicLibrary/dlLibraryTable/dlLibraryTable.C at line 188
    Could not load "libpetscFoam.so"
libpetscFoam.so: cannot open shared object file: No such file or directory
Processor 39: field transfer
--> FOAM Warning : 
    From void* Foam::dlLibraryTable::openLibrary(const Foam::fileName&, bool)
    in file db/dynamicLibrary/dlLibraryTable/dlLibraryTable.C at line 188
    Could not load "libpetscFoam.so"
libpetscFoam.so: cannot open shared object file: No such file or directory
Processor 40: field transfer
--> FOAM Warning : 
    From void* Foam::dlLibraryTable::openLibrary(const Foam::fileName&, bool)
    in file db/dynamicLibrary/dlLibraryTable/dlLibraryTable.C at line 188
    Could not load "libpetscFoam.so"
libpetscFoam.so: cannot open shared object file: No such file or directory
Processor 41: field transfer
--> FOAM Warning : 
    From void* Foam::dlLibraryTable::openLibrary(const Foam::fileName&, bool)
    in file db/dynamicLibrary/dlLibraryTable/dlLibraryTable.C at line 188
    Could not load "libpetscFoam.so"
libpetscFoam.so: cannot open shared object file: No such file or directory
Processor 42: field transfer
--> FOAM Warning : 
    From void* Foam::dlLibraryTable::openLibrary(const Foam::fileName&, bool)
    in file db/dynamicLibrary/dlLibraryTable/dlLibraryTable.C at line 188
    Could not load "libpetscFoam.so"
libpetscFoam.so: cannot open shared object file: No such file or directory
Processor 43: field transfer
--> FOAM Warning : 
    From void* Foam::dlLibraryTable::openLibrary(const Foam::fileName&, bool)
    in file db/dynamicLibrary/dlLibraryTable/dlLibraryTable.C at line 188
    Could not load "libpetscFoam.so"
libpetscFoam.so: cannot open shared object file: No such file or directory
Processor 44: field transfer
--> FOAM Warning : 
    From void* Foam::dlLibraryTable::openLibrary(const Foam::fileName&, bool)
    in file db/dynamicLibrary/dlLibraryTable/dlLibraryTable.C at line 188
    Could not load "libpetscFoam.so"
libpetscFoam.so: cannot open shared object file: No such file or directory
Processor 45: field transfer
--> FOAM Warning : 
    From void* Foam::dlLibraryTable::openLibrary(const Foam::fileName&, bool)
    in file db/dynamicLibrary/dlLibraryTable/dlLibraryTable.C at line 188
    Could not load "libpetscFoam.so"
libpetscFoam.so: cannot open shared object file: No such file or directory
Processor 46: field transfer
--> FOAM Warning : 
    From void* Foam::dlLibraryTable::openLibrary(const Foam::fileName&, bool)
    in file db/dynamicLibrary/dlLibraryTable/dlLibraryTable.C at line 188
    Could not load "libpetscFoam.so"
libpetscFoam.so: cannot open shared object file: No such file or directory
Processor 47: field transfer
--> FOAM Warning : 
    From void* Foam::dlLibraryTable::openLibrary(const Foam::fileName&, bool)
    in file db/dynamicLibrary/dlLibraryTable/dlLibraryTable.C at line 188
    Could not load "libpetscFoam.so"
libpetscFoam.so: cannot open shared object file: No such file or directory
Processor 48: field transfer
--> FOAM Warning : 
    From void* Foam::dlLibraryTable::openLibrary(const Foam::fileName&, bool)
    in file db/dynamicLibrary/dlLibraryTable/dlLibraryTable.C at line 188
    Could not load "libpetscFoam.so"
libpetscFoam.so: cannot open shared object file: No such file or directory
Processor 49: field transfer
--> FOAM Warning : 
    From void* Foam::dlLibraryTable::openLibrary(const Foam::fileName&, bool)
    in file db/dynamicLibrary/dlLibraryTable/dlLibraryTable.C at line 188
    Could not load "libpetscFoam.so"
libpetscFoam.so: cannot open shared object file: No such file or directory
Processor 50: field transfer
--> FOAM Warning : 
    From void* Foam::dlLibraryTable::openLibrary(const Foam::fileName&, bool)
    in file db/dynamicLibrary/dlLibraryTable/dlLibraryTable.C at line 188
    Could not load "libpetscFoam.so"
libpetscFoam.so: cannot open shared object file: No such file or directory
Processor 51: field transfer
--> FOAM Warning : 
    From void* Foam::dlLibraryTable::openLibrary(const Foam::fileName&, bool)
    in file db/dynamicLibrary/dlLibraryTable/dlLibraryTable.C at line 188
    Could not load "libpetscFoam.so"
libpetscFoam.so: cannot open shared object file: No such file or directory
Processor 52: field transfer
--> FOAM Warning : 
    From void* Foam::dlLibraryTable::openLibrary(const Foam::fileName&, bool)
    in file db/dynamicLibrary/dlLibraryTable/dlLibraryTable.C at line 188
    Could not load "libpetscFoam.so"
libpetscFoam.so: cannot open shared object file: No such file or directory
Processor 53: field transfer
--> FOAM Warning : 
    From void* Foam::dlLibraryTable::openLibrary(const Foam::fileName&, bool)
    in file db/dynamicLibrary/dlLibraryTable/dlLibraryTable.C at line 188
    Could not load "libpetscFoam.so"
libpetscFoam.so: cannot open shared object file: No such file or directory
Processor 54: field transfer
--> FOAM Warning : 
    From void* Foam::dlLibraryTable::openLibrary(const Foam::fileName&, bool)
    in file db/dynamicLibrary/dlLibraryTable/dlLibraryTable.C at line 188
    Could not load "libpetscFoam.so"
libpetscFoam.so: cannot open shared object file: No such file or directory
Processor 55: field transfer
--> FOAM Warning : 
    From void* Foam::dlLibraryTable::openLibrary(const Foam::fileName&, bool)
    in file db/dynamicLibrary/dlLibraryTable/dlLibraryTable.C at line 188
    Could not load "libpetscFoam.so"
libpetscFoam.so: cannot open shared object file: No such file or directory
Processor 56: field transfer
--> FOAM Warning : 
    From void* Foam::dlLibraryTable::openLibrary(const Foam::fileName&, bool)
    in file db/dynamicLibrary/dlLibraryTable/dlLibraryTable.C at line 188
    Could not load "libpetscFoam.so"
libpetscFoam.so: cannot open shared object file: No such file or directory
Processor 57: field transfer
--> FOAM Warning : 
    From void* Foam::dlLibraryTable::openLibrary(const Foam::fileName&, bool)
    in file db/dynamicLibrary/dlLibraryTable/dlLibraryTable.C at line 188
    Could not load "libpetscFoam.so"
libpetscFoam.so: cannot open shared object file: No such file or directory
Processor 58: field transfer
--> FOAM Warning : 
    From void* Foam::dlLibraryTable::openLibrary(const Foam::fileName&, bool)
    in file db/dynamicLibrary/dlLibraryTable/dlLibraryTable.C at line 188
    Could not load "libpetscFoam.so"
libpetscFoam.so: cannot open shared object file: No such file or directory
Processor 59: field transfer
--> FOAM Warning : 
    From void* Foam::dlLibraryTable::openLibrary(const Foam::fileName&, bool)
    in file db/dynamicLibrary/dlLibraryTable/dlLibraryTable.C at line 188
    Could not load "libpetscFoam.so"
libpetscFoam.so: cannot open shared object file: No such file or directory
Processor 60: field transfer
--> FOAM Warning : 
    From void* Foam::dlLibraryTable::openLibrary(const Foam::fileName&, bool)
    in file db/dynamicLibrary/dlLibraryTable/dlLibraryTable.C at line 188
    Could not load "libpetscFoam.so"
libpetscFoam.so: cannot open shared object file: No such file or directory
Processor 61: field transfer
--> FOAM Warning : 
    From void* Foam::dlLibraryTable::openLibrary(const Foam::fileName&, bool)
    in file db/dynamicLibrary/dlLibraryTable/dlLibraryTable.C at line 188
    Could not load "libpetscFoam.so"
libpetscFoam.so: cannot open shared object file: No such file or directory
Processor 62: field transfer
--> FOAM Warning : 
    From void* Foam::dlLibraryTable::openLibrary(const Foam::fileName&, bool)
    in file db/dynamicLibrary/dlLibraryTable/dlLibraryTable.C at line 188
    Could not load "libpetscFoam.so"
libpetscFoam.so: cannot open shared object file: No such file or directory
Processor 63: field transfer
--> FOAM Warning : 
    From void* Foam::dlLibraryTable::openLibrary(const Foam::fileName&, bool)
    in file db/dynamicLibrary/dlLibraryTable/dlLibraryTable.C at line 188
    Could not load "libpetscFoam.so"
libpetscFoam.so: cannot open shared object file: No such file or directory
Processor 64: field transfer
--> FOAM Warning : 
    From void* Foam::dlLibraryTable::openLibrary(const Foam::fileName&, bool)
    in file db/dynamicLibrary/dlLibraryTable/dlLibraryTable.C at line 188
    Could not load "libpetscFoam.so"
libpetscFoam.so: cannot open shared object file: No such file or directory
Processor 65: field transfer
--> FOAM Warning : 
    From void* Foam::dlLibraryTable::openLibrary(const Foam::fileName&, bool)
    in file db/dynamicLibrary/dlLibraryTable/dlLibraryTable.C at line 188
    Could not load "libpetscFoam.so"
libpetscFoam.so: cannot open shared object file: No such file or directory
Processor 66: field transfer
--> FOAM Warning : 
    From void* Foam::dlLibraryTable::openLibrary(const Foam::fileName&, bool)
    in file db/dynamicLibrary/dlLibraryTable/dlLibraryTable.C at line 188
    Could not load "libpetscFoam.so"
libpetscFoam.so: cannot open shared object file: No such file or directory
Processor 67: field transfer
--> FOAM Warning : 
    From void* Foam::dlLibraryTable::openLibrary(const Foam::fileName&, bool)
    in file db/dynamicLibrary/dlLibraryTable/dlLibraryTable.C at line 188
    Could not load "libpetscFoam.so"
libpetscFoam.so: cannot open shared object file: No such file or directory
Processor 68: field transfer
--> FOAM Warning : 
    From void* Foam::dlLibraryTable::openLibrary(const Foam::fileName&, bool)
    in file db/dynamicLibrary/dlLibraryTable/dlLibraryTable.C at line 188
    Could not load "libpetscFoam.so"
libpetscFoam.so: cannot open shared object file: No such file or directory
Processor 69: field transfer
--> FOAM Warning : 
    From void* Foam::dlLibraryTable::openLibrary(const Foam::fileName&, bool)
    in file db/dynamicLibrary/dlLibraryTable/dlLibraryTable.C at line 188
    Could not load "libpetscFoam.so"
libpetscFoam.so: cannot open shared object file: No such file or directory
Processor 70: field transfer
--> FOAM Warning : 
    From void* Foam::dlLibraryTable::openLibrary(const Foam::fileName&, bool)
    in file db/dynamicLibrary/dlLibraryTable/dlLibraryTable.C at line 188
    Could not load "libpetscFoam.so"
libpetscFoam.so: cannot open shared object file: No such file or directory
Processor 71: field transfer
--> FOAM Warning : 
    From void* Foam::dlLibraryTable::openLibrary(const Foam::fileName&, bool)
    in file db/dynamicLibrary/dlLibraryTable/dlLibraryTable.C at line 188
    Could not load "libpetscFoam.so"
libpetscFoam.so: cannot open shared object file: No such file or directory
Processor 72: field transfer
--> FOAM Warning : 
    From void* Foam::dlLibraryTable::openLibrary(const Foam::fileName&, bool)
    in file db/dynamicLibrary/dlLibraryTable/dlLibraryTable.C at line 188
    Could not load "libpetscFoam.so"
libpetscFoam.so: cannot open shared object file: No such file or directory
Processor 73: field transfer
--> FOAM Warning : 
    From void* Foam::dlLibraryTable::openLibrary(const Foam::fileName&, bool)
    in file db/dynamicLibrary/dlLibraryTable/dlLibraryTable.C at line 188
    Could not load "libpetscFoam.so"
libpetscFoam.so: cannot open shared object file: No such file or directory
Processor 74: field transfer
--> FOAM Warning : 
    From void* Foam::dlLibraryTable::openLibrary(const Foam::fileName&, bool)
    in file db/dynamicLibrary/dlLibraryTable/dlLibraryTable.C at line 188
    Could not load "libpetscFoam.so"
libpetscFoam.so: cannot open shared object file: No such file or directory
Processor 75: field transfer
--> FOAM Warning : 
    From void* Foam::dlLibraryTable::openLibrary(const Foam::fileName&, bool)
    in file db/dynamicLibrary/dlLibraryTable/dlLibraryTable.C at line 188
    Could not load "libpetscFoam.so"
libpetscFoam.so: cannot open shared object file: No such file or directory
Processor 76: field transfer
--> FOAM Warning : 
    From void* Foam::dlLibraryTable::openLibrary(const Foam::fileName&, bool)
    in file db/dynamicLibrary/dlLibraryTable/dlLibraryTable.C at line 188
    Could not load "libpetscFoam.so"
libpetscFoam.so: cannot open shared object file: No such file or directory
Processor 77: field transfer
--> FOAM Warning : 
    From void* Foam::dlLibraryTable::openLibrary(const Foam::fileName&, bool)
    in file db/dynamicLibrary/dlLibraryTable/dlLibraryTable.C at line 188
    Could not load "libpetscFoam.so"
libpetscFoam.so: cannot open shared object file: No such file or directory
Processor 78: field transfer
--> FOAM Warning : 
    From void* Foam::dlLibraryTable::openLibrary(const Foam::fileName&, bool)
    in file db/dynamicLibrary/dlLibraryTable/dlLibraryTable.C at line 188
    Could not load "libpetscFoam.so"
libpetscFoam.so: cannot open shared object file: No such file or directory
Processor 79: field transfer
--> FOAM Warning : 
    From void* Foam::dlLibraryTable::openLibrary(const Foam::fileName&, bool)
    in file db/dynamicLibrary/dlLibraryTable/dlLibraryTable.C at line 188
    Could not load "libpetscFoam.so"
libpetscFoam.so: cannot open shared object file: No such file or directory

End

