/*---------------------------------------------------------------------------*\
| =========                 |                                                 |
| \\      /  F ield         | OpenFOAM: The Open Source CFD Toolbox           |
|  \\    /   O peration     | Version:  2306                                  |
|   \\  /    A nd           | Website:  www.openfoam.com                      |
|    \\/     M anipulation  |                                                 |
\*---------------------------------------------------------------------------*/
Build  : a6e826bd55-20230630 OPENFOAM=2306 version=v2306
Arch   : "LSB;label=32;scalar=64"
Exec   : simpleFoam -parallel -case /home/greole/data/code/exasim_project/micro_benchmarks/WindsorBody/workspace/b0d25d681bf19fefa8f79ad49a0b915d/case
Date   : Aug 11 2023
Time   : 21:42:07
Host   : nla-gpu2.ianm.kit.edu
PID    : 2482758
I/O    : uncollated
Case   : /home/greole/data/code/exasim_project/micro_benchmarks/WindsorBody/workspace/b0d25d681bf19fefa8f79ad49a0b915d/case
nProcs : 32
Hosts  :
(
    (nla-gpu2.ianm.kit.edu 32)
)
Pstream initialized with:
    floatTransfer      : false
    nProcsSimpleSum    : 0
    nonBlockingExchange: 0 (tuning: 0)
    exchange algorithm : -1
    commsType          : nonBlocking
    polling iterations : 0
trapFpe: Floating point exception trapping enabled (FOAM_SIGFPE).
fileModificationChecking : Monitoring run-time modified files using timeStampMaster (fileModificationSkew 5, maxFileModificationPolls 20)
allowSystemOperations : Allowing user-supplied system call operations

// * * * * * * * * * * * * * * * * * * * * * * * * * * * * * * * * * * * * * //
Create time

--> FOAM Warning : 
    From void* Foam::dlLibraryTable::openLibrary(const Foam::fileName&, bool)
    in file db/dynamicLibrary/dlLibraryTable/dlLibraryTable.C at line 188
    Could not load "libpetscFoam.so"
libpetscFoam.so: cannot open shared object file: No such file or directory
Create mesh for time = 0


SIMPLE: convergence criteria
    field p	 tolerance 1e-08
    field U	 tolerance 1e-08
    field k	 tolerance 1e-08
    field omega	 tolerance 1e-08
    field nuTilda	 tolerance 1e-08

Reading field p

Reading field U

Reading/calculating face flux field phi

Selecting incompressible transport model Newtonian
Selecting turbulence model type RAS
Selecting RAS turbulence model SpalartAllmaras
Selecting patchDistMethod meshWave
ft2 term: inactive
RAS
{
    RASModel        SpalartAllmaras;
    turbulence      on;
    printCoeffs     on;
    sigmaNut        0.66666;
    kappa           0.41;
    Cb1             0.1355;
    Cb2             0.622;
    Cw2             0.3;
    Cw3             2;
    Cv1             7.1;
    Cs              0.3;
    ck              0.07000000000000001;
    ft2             false;
    Ct3             1.2;
    Ct4             0.5;
}

No MRF models present

Creating finite volume options from "system/fvOptions"

Selecting finite volume options type velocityDampingConstraint
    Source: velocityDamping
    - selecting all cells
    - selected 25228544 cell(s) with volume 111.3033220642923

Starting time loop

--> FOAM Warning : 
    From bool Foam::functionObjectList::read()
    in file db/functionObjects/functionObjectList/functionObjectList.C at line 1035
    Reading "system/controlDict" at line 2 to 41
    Entry 'lref' is not a dictionary
--> FOAM Warning : 
    From bool Foam::functionObjectList::read()
    in file db/functionObjects/functionObjectList/functionObjectList.C at line 1035
    Reading "system/controlDict" at line 2 to 41
    Entry 'Aref' is not a dictionary
--> FOAM Warning : 
    From bool Foam::functionObjectList::read()
    in file db/functionObjects/functionObjectList/functionObjectList.C at line 1035
    Reading "system/controlDict" at line 2 to 41
    Entry 'yawAngle' is not a dictionary
--> FOAM Warning : 
    From bool Foam::functionObjectList::read()
    in file db/functionObjects/functionObjectList/functionObjectList.C at line 1035
    Reading "system/controlDict" at line 2 to 41
    Entry 'lDomain' is not a dictionary
--> FOAM Warning : 
    From bool Foam::functionObjectList::read()
    in file db/functionObjects/functionObjectList/functionObjectList.C at line 1035
    Reading "system/controlDict" at line 2 to 41
    Entry 'bDomain' is not a dictionary
--> FOAM Warning : 
    From bool Foam::functionObjectList::read()
    in file db/functionObjects/functionObjectList/functionObjectList.C at line 1035
    Reading "system/controlDict" at line 2 to 41
    Entry 'hDomain' is not a dictionary
--> FOAM Warning : 
    From bool Foam::functionObjectList::read()
    in file db/functionObjects/functionObjectList/functionObjectList.C at line 1035
    Reading "system/controlDict" at line 2 to 41
    Entry 'xCenter' is not a dictionary
--> FOAM Warning : 
    From bool Foam::functionObjectList::read()
    in file db/functionObjects/functionObjectList/functionObjectList.C at line 1035
    Reading "system/controlDict" at line 2 to 41
    Entry 'yCenter' is not a dictionary
--> FOAM Warning : 
    From bool Foam::functionObjectList::read()
    in file db/functionObjects/functionObjectList/functionObjectList.C at line 1035
    Reading "system/controlDict" at line 2 to 41
    Entry 'zCenter' is not a dictionary
--> FOAM Warning : 
    From bool Foam::functionObjectList::read()
    in file db/functionObjects/functionObjectList/functionObjectList.C at line 1035
    Reading "system/controlDict" at line 2 to 41
    Entry 'inletPatch' is not a dictionary
--> FOAM Warning : 
    From bool Foam::functionObjectList::read()
    in file db/functionObjects/functionObjectList/functionObjectList.C at line 1035
    Reading "system/controlDict" at line 2 to 41
    Entry 'outletPatch' is not a dictionary
--> FOAM Warning : 
    From bool Foam::functionObjectList::read()
    in file db/functionObjects/functionObjectList/functionObjectList.C at line 1035
    Reading "system/controlDict" at line 2 to 41
    Entry 'wallPatches' is not a dictionary
--> FOAM Warning : 
    From bool Foam::functionObjectList::read()
    in file db/functionObjects/functionObjectList/functionObjectList.C at line 1035
    Reading "system/controlDict" at line 2 to 41
    Entry 'forcesWallPatches' is not a dictionary
--> FOAM Warning : 
    From bool Foam::functionObjectList::read()
    in file db/functionObjects/functionObjectList/functionObjectList.C at line 1035
    Reading "system/controlDict" at line 2 to 41
    Entry 'symmPatches' is not a dictionary
--> FOAM Warning : 
    From bool Foam::functionObjectList::read()
    in file db/functionObjects/functionObjectList/functionObjectList.C at line 1035
    Reading "system/controlDict" at line 2 to 41
    Entry 'Uinf' is not a dictionary
--> FOAM Warning : 
    From bool Foam::functionObjectList::read()
    in file db/functionObjects/functionObjectList/functionObjectList.C at line 1035
    Reading "system/controlDict" at line 2 to 41
    Entry 'UinfMag' is not a dictionary
--> FOAM Warning : 
    From bool Foam::functionObjectList::read()
    in file db/functionObjects/functionObjectList/functionObjectList.C at line 1035
    Reading "system/controlDict" at line 2 to 41
    Entry 'nu' is not a dictionary
--> FOAM Warning : 
    From bool Foam::functionObjectList::read()
    in file db/functionObjects/functionObjectList/functionObjectList.C at line 1035
    Reading "system/controlDict" at line 2 to 41
    Entry 'pref' is not a dictionary
--> FOAM Warning : 
    From bool Foam::functionObjectList::read()
    in file db/functionObjects/functionObjectList/functionObjectList.C at line 1035
    Reading "system/controlDict" at line 2 to 41
    Entry 'viscRatio' is not a dictionary
--> FOAM Warning : 
    From bool Foam::functionObjectList::read()
    in file db/functionObjects/functionObjectList/functionObjectList.C at line 1035
    Reading "system/controlDict" at line 2 to 41
    Entry 'Tu' is not a dictionary
--> FOAM Warning : 
    From bool Foam::functionObjectList::read()
    in file db/functionObjects/functionObjectList/functionObjectList.C at line 1035
    Reading "system/controlDict" at line 2 to 41
    Entry 'LESturbModel' is not a dictionary
--> FOAM Warning : 
    From bool Foam::functionObjectList::read()
    in file db/functionObjects/functionObjectList/functionObjectList.C at line 1035
    Reading "system/controlDict" at line 2 to 41
    Entry 'RASturbModel' is not a dictionary
--> FOAM Warning : 
    From bool Foam::functionObjectList::read()
    in file db/functionObjects/functionObjectList/functionObjectList.C at line 1035
    Reading "system/controlDict" at line 2 to 41
    Entry 'deltaTurb' is not a dictionary
--> FOAM Warning : 
    From bool Foam::functionObjectList::read()
    in file db/functionObjects/functionObjectList/functionObjectList.C at line 1035
    Reading "system/controlDict" at line 2 to 41
    Entry 'dt' is not a dictionary
--> FOAM Warning : 
    From bool Foam::functionObjectList::read()
    in file db/functionObjects/functionObjectList/functionObjectList.C at line 1035
    Reading "system/controlDict" at line 2 to 41
    Entry 'tAvg' is not a dictionary
--> FOAM Warning : 
    From bool Foam::functionObjectList::read()
    in file db/functionObjects/functionObjectList/functionObjectList.C at line 1035
    Reading "system/controlDict" at line 2 to 41
    Entry 'tEnd' is not a dictionary
--> FOAM Warning : 
    From bool Foam::functionObjectList::read()
    in file db/functionObjects/functionObjectList/functionObjectList.C at line 1035
    Reading "system/controlDict" at line 2 to 41
    Entry 'writeInterval_' is not a dictionary
--> FOAM Warning : 
    From bool Foam::functionObjectList::read()
    in file db/functionObjects/functionObjectList/functionObjectList.C at line 1035
    Reading "system/controlDict" at line 2 to 41
    Entry 'nCores' is not a dictionary
--> FOAM Warning : 
    From bool Foam::functionObjectList::read()
    in file db/functionObjects/functionObjectList/functionObjectList.C at line 1035
    Reading "system/controlDict" at line 2 to 41
    Entry 'interpScheme' is not a dictionary
--> FOAM Warning : 
    From bool Foam::functionObjectList::read()
    in file db/functionObjects/functionObjectList/functionObjectList.C at line 1035
    Reading "system/controlDict" at line 2 to 41
    Entry 'probeField' is not a dictionary
wallShearStress wallShearStress:
    processing wall patches: 
        Windsor_Body
        CFDWT_Floor
        Windsor_Pins
        Windsor_Base
        Windsor_Body_2
        CFDWT_Floor_2
        Windsor_Pins_2
        Windsor_Base_2
        Windsor_Body_3
        CFDWT_Floor_3
        Windsor_Pins_3
        Windsor_Base_3
        Windsor_Body_4
        CFDWT_Floor_4
        Windsor_Pins_4
        Windsor_Base_4

pressure calc_cp:
    Operating mode: staticCoeff
    Not including hydrostatic effects

forceCoeffs forceCoeffsAll:
    rho: rhoInf
    Freestream density (rhoInf) set to 1
    Not including porosity effects
    magUInf: 40
    lRef   : 0.6375
    Aref   : 0.1124
    rhoInf : 1
    Selecting all coefficients
    - Drag force: Cd
    - Drag force front: Cd(f)
    - Drag force rear: Cd(r)
    - Lift force: Cl
    - Lift force front: Cl(f)
    - Lift force rear: Cl(r)
    - Pitch moment: CmPitch
    - Roll moment: CmRoll
    - Yaw moment: CmYaw
    - Side force: Cs
    - Side force front: Cs(f)
    - Side force rear: Cs(r)


forceCoeffs dragCoeffBase:
    rho: rhoInf
    Freestream density (rhoInf) set to 1
    Not including porosity effects
    magUInf: 40
    lRef   : 0.6375
    Aref   : 0.1124
    rhoInf : 1
    Selecting coefficients:
    - Drag force: Cd


Time = 1

velocityDampingConstraint velocityDamping damped 0 (0%) of cells, with max limit 300
[INFO] MatrixAssemblyU: 1791.247 [ms]
smoothSolver:  Solving for Ux, Initial residual = 0.999999999999132, Final residual = 0.08732233576025124, No Iterations 15
smoothSolver:  Solving for Uy, Initial residual = 1, Final residual = 0.08969304284504311, No Iterations 31
smoothSolver:  Solving for Uz, Initial residual = 1, Final residual = 0.03285812320514895, No Iterations 2
[INFO] MomentumPredictor: 1876.441 [ms]
[INFO] MatrixAssemblyPI: 328.625 [ms]
[INFO] MatrixAssemblyPII: 152.839 [ms]
DICPCG:  Solving for p, Initial residual = 1, Final residual = 0.009867338056706079, No Iterations 420
[INFO] SolveP: 17750.492 [ms]
time step continuity errors : sum local = 0.003620378189665591, global = 9.04484910353993e-05, cumulative = 9.04484910353993e-05
[INFO] postSolveP: 79.54300000000001 [ms]
smoothSolver:  Solving for nuTilda, Initial residual = 0.9999999972922781, Final residual = 0.06430086188072966, No Iterations 3
[INFO] TimeStep: 23087.754 [ms]
ExecutionTime = 45.44 s  ClockTime = 46 s

--> FOAM Warning : 
    From virtual bool Foam::functionObjects::fieldSelection::checkSelection()
    in file functionObjects/fieldSelections/fieldSelection/fieldSelection.C at line 166
    Field k not found
--> FOAM Warning : 
    From virtual bool Foam::functionObjects::fieldSelection::checkSelection()
    in file functionObjects/fieldSelections/fieldSelection/fieldSelection.C at line 166
    Field gammaInt not found
--> FOAM Warning : 
    From virtual bool Foam::functionObjects::fieldSelection::checkSelection()
    in file functionObjects/fieldSelections/fieldSelection/fieldSelection.C at line 166
    Field omega not found
--> FOAM Warning : 
    From virtual bool Foam::functionObjects::fieldSelection::checkSelection()
    in file functionObjects/fieldSelections/fieldSelection/fieldSelection.C at line 166
    Field ReThetat not found
--> FOAM Warning : 
    From virtual bool Foam::functionObjects::fieldSelection::checkSelection()
    in file functionObjects/fieldSelections/fieldSelection/fieldSelection.C at line 166
    Field epsilon not found
--> FOAM Warning : 
    From virtual bool Foam::functionObjects::solverFieldSelection::updateSelection()
    in file functionObjects/fieldSelections/solverFieldSelection/solverFieldSelection.C at line 85
    Valid solver fields are: 3(U nuTilda p)Time = 2

velocityDampingConstraint velocityDamping damped 0 (0%) of cells, with max limit 300
[INFO] MatrixAssemblyU: 1682.301 [ms]
smoothSolver:  Solving for Ux, Initial residual = 0.2130803284084854, Final residual = 0.01840388756773332, No Iterations 13
smoothSolver:  Solving for Uy, Initial residual = 0.3544515759006401, Final residual = 0.03305062297648711, No Iterations 13
smoothSolver:  Solving for Uz, Initial residual = 0.3287801466716428, Final residual = 0.02813046042333679, No Iterations 13
[INFO] MomentumPredictor: 1580.403 [ms]
[INFO] MatrixAssemblyPI: 329.698 [ms]
[INFO] MatrixAssemblyPII: 154.461 [ms]
DICPCG:  Solving for p, Initial residual = 0.2097907028175488, Final residual = 0.00208652684456698, No Iterations 342
[INFO] SolveP: 14449.73 [ms]
time step continuity errors : sum local = 0.04275935426137254, global = 0.001663299714310777, cumulative = 0.001753748205346176
[INFO] postSolveP: 78.65000000000001 [ms]
smoothSolver:  Solving for nuTilda, Initial residual = 0.4059917819355217, Final residual = 0.02533316043257684, No Iterations 1
[INFO] TimeStep: 19325.483 [ms]
ExecutionTime = 65.98999999999999 s  ClockTime = 66 s

Time = 3

velocityDampingConstraint velocityDamping damped 3323 (0.01%) of cells, with max limit 300
[INFO] MatrixAssemblyU: 1700.301 [ms]
smoothSolver:  Solving for Ux, Initial residual = 0.1247743933751037, Final residual = 0.01178205068100695, No Iterations 9
smoothSolver:  Solving for Uy, Initial residual = 0.2052047814216405, Final residual = 0.01965760131893145, No Iterations 10
smoothSolver:  Solving for Uz, Initial residual = 0.2192233846055348, Final residual = 0.02143342558283561, No Iterations 9
[INFO] MomentumPredictor: 1205.941 [ms]
[INFO] MatrixAssemblyPI: 329.366 [ms]
[INFO] MatrixAssemblyPII: 153.81 [ms]
DICPCG:  Solving for p, Initial residual = 0.1185914334165268, Final residual = 0.001180611314250641, No Iterations 188
[INFO] SolveP: 7963.684 [ms]
time step continuity errors : sum local = 0.01320079833464716, global = -0.001003182370653989, cumulative = 0.0007505658346921872
[INFO] postSolveP: 79.669 [ms]
smoothSolver:  Solving for nuTilda, Initial residual = 0.2090385190246164, Final residual = 0.0131306368786808, No Iterations 2
[INFO] TimeStep: 12514.204 [ms]
ExecutionTime = 79.75 s  ClockTime = 80 s

Time = 4

velocityDampingConstraint velocityDamping damped 0 (0%) of cells, with max limit 300
[INFO] MatrixAssemblyU: 1699.939 [ms]
smoothSolver:  Solving for Ux, Initial residual = 0.05383168543413154, Final residual = 0.004958330247064822, No Iterations 11
smoothSolver:  Solving for Uy, Initial residual = 0.1228312923912756, Final residual = 0.01103622365002878, No Iterations 11
smoothSolver:  Solving for Uz, Initial residual = 0.1338077279088017, Final residual = 0.0130975967399776, No Iterations 10
[INFO] MomentumPredictor: 1340.417 [ms]
[INFO] MatrixAssemblyPI: 328.535 [ms]
[INFO] MatrixAssemblyPII: 153.95 [ms]
DICPCG:  Solving for p, Initial residual = 0.1357173987752439, Final residual = 0.001332897926378892, No Iterations 109
[INFO] SolveP: 4643.633 [ms]
time step continuity errors : sum local = 0.01326127281102315, global = -0.002083222232770454, cumulative = -0.001332656398078267
[INFO] postSolveP: 78.739 [ms]
smoothSolver:  Solving for nuTilda, Initial residual = 0.124629319495595, Final residual = 0.0105062465323425, No Iterations 2
[INFO] TimeStep: 9322.938 [ms]
ExecutionTime = 90.34 s  ClockTime = 91 s

Time = 5

velocityDampingConstraint velocityDamping damped 454 (0%) of cells, with max limit 300
[INFO] MatrixAssemblyU: 1693.48 [ms]
smoothSolver:  Solving for Ux, Initial residual = 0.04377452552704467, Final residual = 0.004197201420945808, No Iterations 10
smoothSolver:  Solving for Uy, Initial residual = 0.0977970668800362, Final residual = 0.009324936317738952, No Iterations 11
smoothSolver:  Solving for Uz, Initial residual = 0.1137849378403075, Final residual = 0.01137369616494875, No Iterations 10
[INFO] MomentumPredictor: 1311.616 [ms]
[INFO] MatrixAssemblyPI: 329.21 [ms]
[INFO] MatrixAssemblyPII: 154.634 [ms]
DICPCG:  Solving for p, Initial residual = 0.09757560345636919, Final residual = 0.0009634879709804722, No Iterations 231
[INFO] SolveP: 9774.017 [ms]
time step continuity errors : sum local = 0.00760372479764741, global = -0.0002300478911999778, cumulative = -0.001562704289278245
[INFO] postSolveP: 79.598 [ms]
smoothSolver:  Solving for nuTilda, Initial residual = 0.07082212993952165, Final residual = 0.004308058097206886, No Iterations 3
[INFO] TimeStep: 14448.091 [ms]
ExecutionTime = 106.01 s  ClockTime = 107 s

Time = 6

velocityDampingConstraint velocityDamping damped 0 (0%) of cells, with max limit 300
[INFO] MatrixAssemblyU: 1688.666 [ms]
smoothSolver:  Solving for Ux, Initial residual = 0.02994005071568595, Final residual = 0.0026530642860584, No Iterations 12
smoothSolver:  Solving for Uy, Initial residual = 0.07452937347223301, Final residual = 0.006866955476930597, No Iterations 12
smoothSolver:  Solving for Uz, Initial residual = 0.08112773364193973, Final residual = 0.00692385877991107, No Iterations 12
[INFO] MomentumPredictor: 1487.951 [ms]
[INFO] MatrixAssemblyPI: 328.222 [ms]
[INFO] MatrixAssemblyPII: 154.375 [ms]
DICPCG:  Solving for p, Initial residual = 0.09745309202710027, Final residual = 0.0009715212136302165, No Iterations 138
[INFO] SolveP: 5858.839 [ms]
time step continuity errors : sum local = 0.007066922442448787, global = 0.0006438848457041406, cumulative = -0.0009188194435741041
[INFO] postSolveP: 79.089 [ms]
smoothSolver:  Solving for nuTilda, Initial residual = 0.06416667743088288, Final residual = 0.003003457789804709, No Iterations 3
[INFO] TimeStep: 10700.406 [ms]
ExecutionTime = 117.95 s  ClockTime = 119 s

Time = 7

velocityDampingConstraint velocityDamping damped 56 (0%) of cells, with max limit 300
[INFO] MatrixAssemblyU: 1682.213 [ms]
smoothSolver:  Solving for Ux, Initial residual = 0.02725258967160862, Final residual = 0.002430127165531993, No Iterations 12
smoothSolver:  Solving for Uy, Initial residual = 0.06747598280754234, Final residual = 0.006378842953534438, No Iterations 12
smoothSolver:  Solving for Uz, Initial residual = 0.07120214556154586, Final residual = 0.006220492005797197, No Iterations 12
[INFO] MomentumPredictor: 1472.646 [ms]
[INFO] MatrixAssemblyPI: 329.242 [ms]
[INFO] MatrixAssemblyPII: 154.333 [ms]
DICPCG:  Solving for p, Initial residual = 0.08324166377354442, Final residual = 0.000817210880633621, No Iterations 123
[INFO] SolveP: 5228.852 [ms]
time step continuity errors : sum local = 0.005960463252669889, global = 0.0008481852196847258, cumulative = -7.063422388937826e-05
[INFO] postSolveP: 78.872 [ms]
smoothSolver:  Solving for nuTilda, Initial residual = 0.04907952478551156, Final residual = 0.003228801640285638, No Iterations 3
[INFO] TimeStep: 10047.194 [ms]
ExecutionTime = 129.23 s  ClockTime = 130 s

Time = 8

velocityDampingConstraint velocityDamping damped 0 (0%) of cells, with max limit 300
[INFO] MatrixAssemblyU: 1683.105 [ms]
smoothSolver:  Solving for Ux, Initial residual = 0.02311909072674292, Final residual = 0.002139899364710349, No Iterations 12
smoothSolver:  Solving for Uy, Initial residual = 0.05991349104121497, Final residual = 0.005877761626844074, No Iterations 12
smoothSolver:  Solving for Uz, Initial residual = 0.06184974263994358, Final residual = 0.005591908549566639, No Iterations 12
[INFO] MomentumPredictor: 1472.255 [ms]
[INFO] MatrixAssemblyPI: 328.673 [ms]
[INFO] MatrixAssemblyPII: 153.687 [ms]
DICPCG:  Solving for p, Initial residual = 0.07512141011812269, Final residual = 0.0007450379523475135, No Iterations 117
[INFO] SolveP: 4981.788 [ms]
time step continuity errors : sum local = 0.005545563073371848, global = 0.0009886998104657904, cumulative = 0.0009180655865764121
[INFO] postSolveP: 78.68000000000001 [ms]
smoothSolver:  Solving for nuTilda, Initial residual = 0.06527871759262474, Final residual = 0.00586099170071896, No Iterations 2
[INFO] TimeStep: 9767.901 [ms]
ExecutionTime = 140.25 s  ClockTime = 141 s

Time = 9

velocityDampingConstraint velocityDamping damped 0 (0%) of cells, with max limit 300
[INFO] MatrixAssemblyU: 1680.012 [ms]
smoothSolver:  Solving for Ux, Initial residual = 0.02035839648507865, Final residual = 0.001901300036644631, No Iterations 12
smoothSolver:  Solving for Uy, Initial residual = 0.05416289812028657, Final residual = 0.005398824462357041, No Iterations 12
smoothSolver:  Solving for Uz, Initial residual = 0.05507864116794908, Final residual = 0.00511889542906833, No Iterations 12
[INFO] MomentumPredictor: 1474.068 [ms]
[INFO] MatrixAssemblyPI: 328.188 [ms]
[INFO] MatrixAssemblyPII: 154.656 [ms]
DICPCG:  Solving for p, Initial residual = 0.06844441071032832, Final residual = 0.0006755925574623305, No Iterations 119
[INFO] SolveP: 5070.454 [ms]
time step continuity errors : sum local = 0.005105279770282052, global = 0.001171240454645223, cumulative = 0.002089306041221635
[INFO] postSolveP: 78.621 [ms]
smoothSolver:  Solving for nuTilda, Initial residual = 0.04411125646746232, Final residual = 0.003200548400822721, No Iterations 3
[INFO] TimeStep: 9889.52 [ms]
ExecutionTime = 151.38 s  ClockTime = 152 s

Time = 10

velocityDampingConstraint velocityDamping damped 0 (0%) of cells, with max limit 300
[INFO] MatrixAssemblyU: 1679.574 [ms]
smoothSolver:  Solving for Ux, Initial residual = 0.01834437917369814, Final residual = 0.001726824904794288, No Iterations 12
smoothSolver:  Solving for Uy, Initial residual = 0.0500151461851536, Final residual = 0.004980361956478132, No Iterations 12
smoothSolver:  Solving for Uz, Initial residual = 0.0504653492850019, Final residual = 0.004756362937590405, No Iterations 12
[INFO] MomentumPredictor: 1475.913 [ms]
[INFO] MatrixAssemblyPI: 328.803 [ms]
[INFO] MatrixAssemblyPII: 153.172 [ms]
DICPCG:  Solving for p, Initial residual = 0.06204504322470123, Final residual = 0.0006146774218633153, No Iterations 232
[INFO] SolveP: 9825.874 [ms]
time step continuity errors : sum local = 0.004639613961420374, global = 7.664030399344677e-05, cumulative = 0.002165946345215082
[INFO] postSolveP: 78.782 [ms]
smoothSolver:  Solving for nuTilda, Initial residual = 0.06963785456928011, Final residual = 0.005487866642877883, No Iterations 2
[INFO] TimeStep: 14614.115 [ms]
ExecutionTime = 167.21 s  ClockTime = 168 s

Time = 11

velocityDampingConstraint velocityDamping damped 0 (0%) of cells, with max limit 300
[INFO] MatrixAssemblyU: 1681.362 [ms]
smoothSolver:  Solving for Ux, Initial residual = 0.01673499624687709, Final residual = 0.001601013705949376, No Iterations 12
smoothSolver:  Solving for Uy, Initial residual = 0.047529204756245, Final residual = 0.004703235448920248, No Iterations 12
smoothSolver:  Solving for Uz, Initial residual = 0.04757395737739861, Final residual = 0.004519495222813218, No Iterations 12
[INFO] MomentumPredictor: 1481.641 [ms]
[INFO] MatrixAssemblyPI: 328.147 [ms]
[INFO] MatrixAssemblyPII: 153.761 [ms]
DICPCG:  Solving for p, Initial residual = 0.05448972339870766, Final residual = 0.0005384350130934198, No Iterations 108
[INFO] SolveP: 4601.458 [ms]
time step continuity errors : sum local = 0.004318135583780186, global = -0.0005715155417167985, cumulative = 0.001594430803498284
[INFO] postSolveP: 78.783 [ms]
smoothSolver:  Solving for nuTilda, Initial residual = 0.03911662299309872, Final residual = 0.003026131083272648, No Iterations 3
[INFO] TimeStep: 9427.431 [ms]
ExecutionTime = 177.88 s  ClockTime = 179 s

Time = 12

velocityDampingConstraint velocityDamping damped 0 (0%) of cells, with max limit 300
[INFO] MatrixAssemblyU: 1678.286 [ms]
smoothSolver:  Solving for Ux, Initial residual = 0.01551936490888926, Final residual = 0.001513830115673932, No Iterations 12
smoothSolver:  Solving for Uy, Initial residual = 0.04526443042150788, Final residual = 0.004441552664665383, No Iterations 12
smoothSolver:  Solving for Uz, Initial residual = 0.04478665286859655, Final residual = 0.004272908609883099, No Iterations 12
[INFO] MomentumPredictor: 1476.106 [ms]
[INFO] MatrixAssemblyPI: 328.056 [ms]
[INFO] MatrixAssemblyPII: 154.555 [ms]
DICPCG:  Solving for p, Initial residual = 0.05160964312871692, Final residual = 0.0005115074947867457, No Iterations 114
[INFO] SolveP: 4849.563 [ms]
time step continuity errors : sum local = 0.004049541454147074, global = -0.0007692576837442642, cumulative = 0.0008251731197540193
[INFO] postSolveP: 79.209 [ms]
smoothSolver:  Solving for nuTilda, Initial residual = 0.06547067484835764, Final residual = 0.005100595563791207, No Iterations 2
[INFO] TimeStep: 9633.079 [ms]
ExecutionTime = 188.76 s  ClockTime = 190 s

Time = 13

velocityDampingConstraint velocityDamping damped 0 (0%) of cells, with max limit 300
[INFO] MatrixAssemblyU: 1678.999 [ms]
smoothSolver:  Solving for Ux, Initial residual = 0.01449927971026326, Final residual = 0.001441439965051123, No Iterations 12
smoothSolver:  Solving for Uy, Initial residual = 0.04335496223260691, Final residual = 0.004241729248887561, No Iterations 12
smoothSolver:  Solving for Uz, Initial residual = 0.04296483829014521, Final residual = 0.004125683442049668, No Iterations 12
[INFO] MomentumPredictor: 1478.996 [ms]
[INFO] MatrixAssemblyPI: 327.609 [ms]
[INFO] MatrixAssemblyPII: 154.476 [ms]
DICPCG:  Solving for p, Initial residual = 0.0490677499152247, Final residual = 0.0004831161957443542, No Iterations 124
[INFO] SolveP: 5291.488 [ms]
time step continuity errors : sum local = 0.003800904609536275, global = -0.0008204896214430382, cumulative = 4.683498310981138e-06
[INFO] postSolveP: 78.83499999999999 [ms]
smoothSolver:  Solving for nuTilda, Initial residual = 0.03469368683031113, Final residual = 0.002828927907718194, No Iterations 3
[INFO] TimeStep: 10113.38 [ms]
ExecutionTime = 200.11 s  ClockTime = 201 s

Time = 14

velocityDampingConstraint velocityDamping damped 0 (0%) of cells, with max limit 300
[INFO] MatrixAssemblyU: 1675.959 [ms]
smoothSolver:  Solving for Ux, Initial residual = 0.01368759683154655, Final residual = 0.001172226575548759, No Iterations 13
smoothSolver:  Solving for Uy, Initial residual = 0.04156389698104573, Final residual = 0.004080383617631112, No Iterations 12
smoothSolver:  Solving for Uz, Initial residual = 0.04198480533406942, Final residual = 0.004051224641111078, No Iterations 12
[INFO] MomentumPredictor: 1496.853 [ms]
[INFO] MatrixAssemblyPI: 328.019 [ms]
[INFO] MatrixAssemblyPII: 154.743 [ms]
DICPCG:  Solving for p, Initial residual = 0.04698620998413203, Final residual = 0.0004644547499671977, No Iterations 100
[INFO] SolveP: 4263.873 [ms]
time step continuity errors : sum local = 0.003641121976418414, global = -0.0008168642136830536, cumulative = -0.0008121807153720725
[INFO] postSolveP: 79.589 [ms]
smoothSolver:  Solving for nuTilda, Initial residual = 0.05809549060123709, Final residual = 0.004800576969473271, No Iterations 2
[INFO] TimeStep: 9066.709000000001 [ms]
ExecutionTime = 210.42 s  ClockTime = 212 s

Time = 15

velocityDampingConstraint velocityDamping damped 0 (0%) of cells, with max limit 300
[INFO] MatrixAssemblyU: 1677.528 [ms]
smoothSolver:  Solving for Ux, Initial residual = 0.01282705595866184, Final residual = 0.001109314948725027, No Iterations 13
smoothSolver:  Solving for Uy, Initial residual = 0.0401631966167757, Final residual = 0.00397266681275997, No Iterations 12
smoothSolver:  Solving for Uz, Initial residual = 0.04170281945724905, Final residual = 0.004055294520365101, No Iterations 12
[INFO] MomentumPredictor: 1509.655 [ms]
[INFO] MatrixAssemblyPI: 327.563 [ms]
[INFO] MatrixAssemblyPII: 155.413 [ms]
DICPCG:  Solving for p, Initial residual = 0.04564016601813645, Final residual = 0.0004503701440996811, No Iterations 119
[INFO] SolveP: 5072.149 [ms]
time step continuity errors : sum local = 0.003526754711159322, global = -0.0007150838278257017, cumulative = -0.001527264543197774
[INFO] postSolveP: 79.41200000000001 [ms]
smoothSolver:  Solving for nuTilda, Initial residual = 0.03134173263265075, Final residual = 0.002662268975561888, No Iterations 3
[INFO] TimeStep: 9923.968000000001 [ms]
ExecutionTime = 221.58 s  ClockTime = 223 s

Time = 16

velocityDampingConstraint velocityDamping damped 0 (0%) of cells, with max limit 300
[INFO] MatrixAssemblyU: 1675.321 [ms]
smoothSolver:  Solving for Ux, Initial residual = 0.01220976467414075, Final residual = 0.001055419160714606, No Iterations 13
smoothSolver:  Solving for Uy, Initial residual = 0.03926600280476285, Final residual = 0.003901584124565332, No Iterations 12
smoothSolver:  Solving for Uz, Initial residual = 0.04156272670951348, Final residual = 0.004046178923678351, No Iterations 12
[INFO] MomentumPredictor: 1504.866 [ms]
[INFO] MatrixAssemblyPI: 328.313 [ms]
[INFO] MatrixAssemblyPII: 153.777 [ms]
DICPCG:  Solving for p, Initial residual = 0.04451604099516356, Final residual = 0.0004415223168970742, No Iterations 89
[INFO] SolveP: 3805.763 [ms]
time step continuity errors : sum local = 0.003454752963897689, global = -0.0005252683578096785, cumulative = -0.002052532901007453
[INFO] postSolveP: 78.48399999999999 [ms]
smoothSolver:  Solving for nuTilda, Initial residual = 0.05167157315214965, Final residual = 0.004552596740948355, No Iterations 2
[INFO] TimeStep: 8615.467000000001 [ms]
ExecutionTime = 231.44 s  ClockTime = 233 s

Time = 17

velocityDampingConstraint velocityDamping damped 0 (0%) of cells, with max limit 300
[INFO] MatrixAssemblyU: 1672.894 [ms]
smoothSolver:  Solving for Ux, Initial residual = 0.01159203677882036, Final residual = 0.001007476700817097, No Iterations 13
smoothSolver:  Solving for Uy, Initial residual = 0.03875044775578989, Final residual = 0.00329782769648372, No Iterations 13
smoothSolver:  Solving for Uz, Initial residual = 0.04159130964999032, Final residual = 0.004065841958799483, No Iterations 12
[INFO] MomentumPredictor: 1546.208 [ms]
[INFO] MatrixAssemblyPI: 331.643 [ms]
[INFO] MatrixAssemblyPII: 153.918 [ms]
DICPCG:  Solving for p, Initial residual = 0.04422025756215663, Final residual = 0.0004410165987700432, No Iterations 106
[INFO] SolveP: 4528.184 [ms]
time step continuity errors : sum local = 0.003460032141586261, global = -0.0002955045668911577, cumulative = -0.00234803746789861
[INFO] postSolveP: 79.943 [ms]
smoothSolver:  Solving for nuTilda, Initial residual = 0.02888377850523365, Final residual = 0.002513674913219513, No Iterations 3
[INFO] TimeStep: 9409.821 [ms]
ExecutionTime = 242.09 s  ClockTime = 244 s

Time = 18

velocityDampingConstraint velocityDamping damped 0 (0%) of cells, with max limit 300
[INFO] MatrixAssemblyU: 1672.043 [ms]
smoothSolver:  Solving for Ux, Initial residual = 0.0112584922660719, Final residual = 0.0009687229228117047, No Iterations 13
smoothSolver:  Solving for Uy, Initial residual = 0.03849595963860685, Final residual = 0.003285087836704731, No Iterations 13
smoothSolver:  Solving for Uz, Initial residual = 0.04182801443828252, Final residual = 0.004068916666817809, No Iterations 12
[INFO] MomentumPredictor: 1532.071 [ms]
[INFO] MatrixAssemblyPI: 328.463 [ms]
[INFO] MatrixAssemblyPII: 154.783 [ms]
DICPCG:  Solving for p, Initial residual = 0.04417278665752321, Final residual = 0.0004343156139117412, No Iterations 102
[INFO] SolveP: 4352.902 [ms]
time step continuity errors : sum local = 0.003423864790430337, global = -7.811015114616514e-06, cumulative = -0.002355848483013227
[INFO] postSolveP: 78.66200000000001 [ms]
smoothSolver:  Solving for nuTilda, Initial residual = 0.04635455971398902, Final residual = 0.004302582388397846, No Iterations 2
[INFO] TimeStep: 9185.102000000001 [ms]
ExecutionTime = 252.52 s  ClockTime = 254 s

Time = 19

velocityDampingConstraint velocityDamping damped 0 (0%) of cells, with max limit 300
[INFO] MatrixAssemblyU: 1674.036 [ms]
smoothSolver:  Solving for Ux, Initial residual = 0.01090942117440498, Final residual = 0.0009381040458182764, No Iterations 13
smoothSolver:  Solving for Uy, Initial residual = 0.03883074534412659, Final residual = 0.003315182140401257, No Iterations 13
smoothSolver:  Solving for Uz, Initial residual = 0.0425692170526755, Final residual = 0.004114375964147505, No Iterations 12
[INFO] MomentumPredictor: 1546.24 [ms]
[INFO] MatrixAssemblyPI: 327.856 [ms]
[INFO] MatrixAssemblyPII: 153.34 [ms]
DICPCG:  Solving for p, Initial residual = 0.04444941776934405, Final residual = 0.0004385399463787951, No Iterations 116
[INFO] SolveP: 4944.438 [ms]
time step continuity errors : sum local = 0.003474743489577521, global = 0.0002891795641671068, cumulative = -0.00206666891884612
[INFO] postSolveP: 78.70999999999999 [ms]
smoothSolver:  Solving for nuTilda, Initial residual = 0.02695725751513797, Final residual = 0.002364592322677933, No Iterations 3
[INFO] TimeStep: 9826.638999999999 [ms]
ExecutionTime = 263.58 s  ClockTime = 265 s

Time = 20

velocityDampingConstraint velocityDamping damped 0 (0%) of cells, with max limit 300
[INFO] MatrixAssemblyU: 1677.483 [ms]
smoothSolver:  Solving for Ux, Initial residual = 0.01073570774903525, Final residual = 0.000918665015471659, No Iterations 13
smoothSolver:  Solving for Uy, Initial residual = 0.03923097875510018, Final residual = 0.003914429341240729, No Iterations 12
smoothSolver:  Solving for Uz, Initial residual = 0.04314112169976368, Final residual = 0.004140329623067767, No Iterations 12
[INFO] MomentumPredictor: 1507.579 [ms]
[INFO] MatrixAssemblyPI: 328.401 [ms]
[INFO] MatrixAssemblyPII: 154.379 [ms]
DICPCG:  Solving for p, Initial residual = 0.04433625577556729, Final residual = 0.0004415220416039066, No Iterations 120
[INFO] SolveP: 5103.359 [ms]
time step continuity errors : sum local = 0.003535717692066671, global = 0.0005482738622465243, cumulative = -0.001518395056599596
[INFO] postSolveP: 78.611 [ms]
smoothSolver:  Solving for nuTilda, Initial residual = 0.04182063116541765, Final residual = 0.004048565290099033, No Iterations 2
[INFO] TimeStep: 9914.969999999999 [ms]
ExecutionTime = 274.74 s  ClockTime = 276 s

Time = 21

velocityDampingConstraint velocityDamping damped 0 (0%) of cells, with max limit 300
[INFO] MatrixAssemblyU: 1671.913 [ms]
smoothSolver:  Solving for Ux, Initial residual = 0.0105301165057131, Final residual = 0.0009042606872373219, No Iterations 13
smoothSolver:  Solving for Uy, Initial residual = 0.03987863126174978, Final residual = 0.003963472308010822, No Iterations 12
smoothSolver:  Solving for Uz, Initial residual = 0.04346311211493651, Final residual = 0.004135833977849315, No Iterations 12
[INFO] MomentumPredictor: 1507.007 [ms]
[INFO] MatrixAssemblyPI: 327.464 [ms]
[INFO] MatrixAssemblyPII: 154.363 [ms]
DICPCG:  Solving for p, Initial residual = 0.04432336100944728, Final residual = 0.0004414684693500153, No Iterations 129
[INFO] SolveP: 5493.659 [ms]
time step continuity errors : sum local = 0.00358059066276458, global = 0.0007578946928082265, cumulative = -0.0007605003637913692
[INFO] postSolveP: 79.006 [ms]
smoothSolver:  Solving for nuTilda, Initial residual = 0.02516780029688803, Final residual = 0.002219302234131537, No Iterations 3
[INFO] TimeStep: 10334.632 [ms]
ExecutionTime = 286.29 s  ClockTime = 288 s

Time = 22

velocityDampingConstraint velocityDamping damped 0 (0%) of cells, with max limit 300
[INFO] MatrixAssemblyU: 1672.094 [ms]
smoothSolver:  Solving for Ux, Initial residual = 0.01049063934898834, Final residual = 0.00104753467741722, No Iterations 12
smoothSolver:  Solving for Uy, Initial residual = 0.04051138850092145, Final residual = 0.003986046172862749, No Iterations 12
smoothSolver:  Solving for Uz, Initial residual = 0.04336850172947106, Final residual = 0.004094700707372721, No Iterations 12
[INFO] MomentumPredictor: 1467.169 [ms]
[INFO] MatrixAssemblyPI: 328.596 [ms]
[INFO] MatrixAssemblyPII: 153.458 [ms]
DICPCG:  Solving for p, Initial residual = 0.04400868817693812, Final residual = 0.0004370704031686757, No Iterations 237
[INFO] SolveP: 10036.316 [ms]
time step continuity errors : sum local = 0.003599456875953999, global = 1.441641703905384e-05, cumulative = -0.0007460839467523154
[INFO] postSolveP: 79.926 [ms]
smoothSolver:  Solving for nuTilda, Initial residual = 0.03795940795699759, Final residual = 0.002018735964485187, No Iterations 3
[INFO] TimeStep: 14835.456 [ms]
ExecutionTime = 302.34 s  ClockTime = 304 s

Time = 23

velocityDampingConstraint velocityDamping damped 0 (0%) of cells, with max limit 300
[INFO] MatrixAssemblyU: 1672.946 [ms]
smoothSolver:  Solving for Ux, Initial residual = 0.01040744524655891, Final residual = 0.001039001678691228, No Iterations 12
smoothSolver:  Solving for Uy, Initial residual = 0.0413020391551369, Final residual = 0.003991104676337755, No Iterations 12
smoothSolver:  Solving for Uz, Initial residual = 0.04314604632606369, Final residual = 0.004016147423125891, No Iterations 12
[INFO] MomentumPredictor: 1479.051 [ms]
[INFO] MatrixAssemblyPI: 328.943 [ms]
[INFO] MatrixAssemblyPII: 154.361 [ms]
DICPCG:  Solving for p, Initial residual = 0.04241160612462027, Final residual = 0.0004163675101312241, No Iterations 114
[INFO] SolveP: 4866.608 [ms]
time step continuity errors : sum local = 0.003592739951080645, global = -0.0001083444782965912, cumulative = -0.0008544284250489065
[INFO] postSolveP: 79.529 [ms]
smoothSolver:  Solving for nuTilda, Initial residual = 0.02334622320419894, Final residual = 0.002087886546555961, No Iterations 3
[INFO] TimeStep: 9676.785 [ms]
ExecutionTime = 313.25 s  ClockTime = 315 s

Time = 24

velocityDampingConstraint velocityDamping damped 0 (0%) of cells, with max limit 300
[INFO] MatrixAssemblyU: 1673.376 [ms]
smoothSolver:  Solving for Ux, Initial residual = 0.01038905493073364, Final residual = 0.001034404724276588, No Iterations 12
smoothSolver:  Solving for Uy, Initial residual = 0.04178285628166659, Final residual = 0.004022731490810281, No Iterations 12
smoothSolver:  Solving for Uz, Initial residual = 0.04248039081714626, Final residual = 0.003928433284250159, No Iterations 12
[INFO] MomentumPredictor: 1471.139 [ms]
[INFO] MatrixAssemblyPI: 328.797 [ms]
[INFO] MatrixAssemblyPII: 154.651 [ms]
DICPCG:  Solving for p, Initial residual = 0.0425433510737593, Final residual = 0.0004183476430813085, No Iterations 117
[INFO] SolveP: 4984.528 [ms]
time step continuity errors : sum local = 0.003620843026985852, global = -6.106836503584269e-05, cumulative = -0.0009154967900847492
[INFO] postSolveP: 79.014 [ms]
smoothSolver:  Solving for nuTilda, Initial residual = 0.03445893485081915, Final residual = 0.001909422244097619, No Iterations 3
[INFO] TimeStep: 9791.615 [ms]
ExecutionTime = 324.28 s  ClockTime = 326 s

Time = 25

velocityDampingConstraint velocityDamping damped 0 (0%) of cells, with max limit 300
[INFO] MatrixAssemblyU: 1671.786 [ms]
smoothSolver:  Solving for Ux, Initial residual = 0.01032701372964816, Final residual = 0.0008848314109013984, No Iterations 13
smoothSolver:  Solving for Uy, Initial residual = 0.04259439182372244, Final residual = 0.004116475625865741, No Iterations 12
smoothSolver:  Solving for Uz, Initial residual = 0.04220004689098054, Final residual = 0.003895440797477317, No Iterations 12
[INFO] MomentumPredictor: 1509.943 [ms]
[INFO] MatrixAssemblyPI: 327.868 [ms]
[INFO] MatrixAssemblyPII: 153.831 [ms]
DICPCG:  Solving for p, Initial residual = 0.04215873354455113, Final residual = 0.0004135816608634996, No Iterations 123
[INFO] SolveP: 5235.776 [ms]
time step continuity errors : sum local = 0.003616509338357827, global = -2.974434407217941e-05, cumulative = -0.0009452411341569286
[INFO] postSolveP: 79.093 [ms]
smoothSolver:  Solving for nuTilda, Initial residual = 0.02150319450206767, Final residual = 0.00195652119337819, No Iterations 3
[INFO] TimeStep: 10079.091 [ms]
ExecutionTime = 335.6 s  ClockTime = 338 s

Time = 26

velocityDampingConstraint velocityDamping damped 0 (0%) of cells, with max limit 300
[INFO] MatrixAssemblyU: 1674.069 [ms]
smoothSolver:  Solving for Ux, Initial residual = 0.01039708683916147, Final residual = 0.001037385227083872, No Iterations 12
smoothSolver:  Solving for Uy, Initial residual = 0.04357442231476915, Final residual = 0.004272404861261318, No Iterations 12
smoothSolver:  Solving for Uz, Initial residual = 0.04224366936306024, Final residual = 0.003940096255736554, No Iterations 12
[INFO] MomentumPredictor: 1462.944 [ms]
[INFO] MatrixAssemblyPI: 327.966 [ms]
[INFO] MatrixAssemblyPII: 154.266 [ms]
DICPCG:  Solving for p, Initial residual = 0.0418448441427418, Final residual = 0.0004081006337255817, No Iterations 116
[INFO] SolveP: 4940.991 [ms]
time step continuity errors : sum local = 0.003610181222248572, global = 4.228467985968207e-05, cumulative = -0.0009029564542972465
[INFO] postSolveP: 78.53100000000001 [ms]
smoothSolver:  Solving for nuTilda, Initial residual = 0.03148881400159009, Final residual = 0.00180383987075801, No Iterations 3
[INFO] TimeStep: 9736.695 [ms]
ExecutionTime = 346.57 s  ClockTime = 349 s

Time = 27

velocityDampingConstraint velocityDamping damped 0 (0%) of cells, with max limit 300
[INFO] MatrixAssemblyU: 1672.964 [ms]
smoothSolver:  Solving for Ux, Initial residual = 0.01040966096339333, Final residual = 0.001038975161849548, No Iterations 12
smoothSolver:  Solving for Uy, Initial residual = 0.04461788990999618, Final residual = 0.004440476090658478, No Iterations 12
smoothSolver:  Solving for Uz, Initial residual = 0.04255684805260689, Final residual = 0.004019373291255952, No Iterations 12
[INFO] MomentumPredictor: 1471.875 [ms]
[INFO] MatrixAssemblyPI: 327.428 [ms]
[INFO] MatrixAssemblyPII: 154.5 [ms]
DICPCG:  Solving for p, Initial residual = 0.04222427833345629, Final residual = 0.0004161919580235912, No Iterations 115
[INFO] SolveP: 4900.989 [ms]
time step continuity errors : sum local = 0.003716922798203863, global = 0.0002031627217474815, cumulative = -0.000699793732549765
[INFO] postSolveP: 79.14400000000001 [ms]
smoothSolver:  Solving for nuTilda, Initial residual = 0.01982539423099901, Final residual = 0.001831422406073657, No Iterations 3
[INFO] TimeStep: 9707.357 [ms]
ExecutionTime = 357.51 s  ClockTime = 360 s

Time = 28

velocityDampingConstraint velocityDamping damped 0 (0%) of cells, with max limit 300
[INFO] MatrixAssemblyU: 1670.329 [ms]
smoothSolver:  Solving for Ux, Initial residual = 0.01055466138648062, Final residual = 0.001042376171765757, No Iterations 12
smoothSolver:  Solving for Uy, Initial residual = 0.04597785100421473, Final residual = 0.003941815699010026, No Iterations 13
smoothSolver:  Solving for Uz, Initial residual = 0.04355580319683097, Final residual = 0.00413222756009458, No Iterations 12
[INFO] MomentumPredictor: 1510.043 [ms]
[INFO] MatrixAssemblyPI: 327.201 [ms]
[INFO] MatrixAssemblyPII: 155.262 [ms]
DICPCG:  Solving for p, Initial residual = 0.04321414595909234, Final residual = 0.0004313806163347515, No Iterations 106
[INFO] SolveP: 4519.163 [ms]
time step continuity errors : sum local = 0.003898107891316945, global = 0.0003983754715990977, cumulative = -0.0003014182609506673
[INFO] postSolveP: 78.988 [ms]
smoothSolver:  Solving for nuTilda, Initial residual = 0.02895634219953627, Final residual = 0.001697192508514424, No Iterations 3
[INFO] TimeStep: 9360.669 [ms]
ExecutionTime = 368.11 s  ClockTime = 370 s

Time = 29

velocityDampingConstraint velocityDamping damped 0 (0%) of cells, with max limit 300
[INFO] MatrixAssemblyU: 1671.72 [ms]
smoothSolver:  Solving for Ux, Initial residual = 0.01059151390549624, Final residual = 0.001043836506739037, No Iterations 12
smoothSolver:  Solving for Uy, Initial residual = 0.04752606278659972, Final residual = 0.004079346241917143, No Iterations 13
smoothSolver:  Solving for Uz, Initial residual = 0.04498436699185521, Final residual = 0.004275120315552641, No Iterations 12
[INFO] MomentumPredictor: 1503.853 [ms]
[INFO] MatrixAssemblyPI: 328.431 [ms]
[INFO] MatrixAssemblyPII: 154.161 [ms]
DICPCG:  Solving for p, Initial residual = 0.04417804524755525, Final residual = 0.0004309207248124691, No Iterations 107
[INFO] SolveP: 4558.117 [ms]
time step continuity errors : sum local = 0.003937659934539362, global = 0.0005976211713290204, cumulative = 0.0002962029103783531
[INFO] postSolveP: 78.874 [ms]
smoothSolver:  Solving for nuTilda, Initial residual = 0.01834292957652533, Final residual = 0.001708156765268271, No Iterations 3
[INFO] TimeStep: 9392.843000000001 [ms]
ExecutionTime = 378.74 s  ClockTime = 381 s

Time = 30

velocityDampingConstraint velocityDamping damped 0 (0%) of cells, with max limit 300
[INFO] MatrixAssemblyU: 1670.147 [ms]
smoothSolver:  Solving for Ux, Initial residual = 0.01079027046300597, Final residual = 0.001049646788027829, No Iterations 12
smoothSolver:  Solving for Uy, Initial residual = 0.0496146678066129, Final residual = 0.004229518196175048, No Iterations 13
smoothSolver:  Solving for Uz, Initial residual = 0.04659639550496046, Final residual = 0.004412412859597633, No Iterations 12
[INFO] MomentumPredictor: 1503.335 [ms]
[INFO] MatrixAssemblyPI: 328.408 [ms]
[INFO] MatrixAssemblyPII: 153.986 [ms]
DICPCG:  Solving for p, Initial residual = 0.04506159589858338, Final residual = 0.0004487591155233681, No Iterations 98
[INFO] SolveP: 4183.003 [ms]
time step continuity errors : sum local = 0.004157853258135864, global = 0.0007905047808906174, cumulative = 0.001086707691268971
[INFO] postSolveP: 79.003 [ms]
smoothSolver:  Solving for nuTilda, Initial residual = 0.02676887382611866, Final residual = 0.001589998339488822, No Iterations 3
[INFO] TimeStep: 9013.618 [ms]
ExecutionTime = 388.98 s  ClockTime = 391 s

Time = 31

velocityDampingConstraint velocityDamping damped 0 (0%) of cells, with max limit 300
[INFO] MatrixAssemblyU: 1671.041 [ms]
smoothSolver:  Solving for Ux, Initial residual = 0.01085342917979268, Final residual = 0.001055736918649601, No Iterations 12
smoothSolver:  Solving for Uy, Initial residual = 0.05192084842096959, Final residual = 0.005171464471162878, No Iterations 12
smoothSolver:  Solving for Uz, Initial residual = 0.04827712777706231, Final residual = 0.004568785056542211, No Iterations 12
[INFO] MomentumPredictor: 1475.23 [ms]
[INFO] MatrixAssemblyPI: 328.387 [ms]
[INFO] MatrixAssemblyPII: 153.703 [ms]
DICPCG:  Solving for p, Initial residual = 0.04630127701220227, Final residual = 0.0004600374576834504, No Iterations 99
[INFO] SolveP: 4237.17 [ms]
time step continuity errors : sum local = 0.004316269780733354, global = 0.0009266936681924014, cumulative = 0.002013401359461372
[INFO] postSolveP: 79.733 [ms]
smoothSolver:  Solving for nuTilda, Initial residual = 0.0170750535195627, Final residual = 0.00158969796425721, No Iterations 3
[INFO] TimeStep: 9041.916999999999 [ms]
ExecutionTime = 399.27 s  ClockTime = 402 s

Time = 32

velocityDampingConstraint velocityDamping damped 0 (0%) of cells, with max limit 300
[INFO] MatrixAssemblyU: 1668.634 [ms]
smoothSolver:  Solving for Ux, Initial residual = 0.01097069262122418, Final residual = 0.001062403923453832, No Iterations 12
smoothSolver:  Solving for Uy, Initial residual = 0.05433342739732436, Final residual = 0.005410214671197193, No Iterations 12
smoothSolver:  Solving for Uz, Initial residual = 0.04984405571580213, Final residual = 0.004772987065557881, No Iterations 12
[INFO] MomentumPredictor: 1470.382 [ms]
[INFO] MatrixAssemblyPI: 327.517 [ms]
[INFO] MatrixAssemblyPII: 155.213 [ms]
DICPCG:  Solving for p, Initial residual = 0.04784425448188039, Final residual = 0.0004701268539203261, No Iterations 100
[INFO] SolveP: 4270.648 [ms]
time step continuity errors : sum local = 0.004465903627773093, global = 0.0009796578641816632, cumulative = 0.002993059223643035
[INFO] postSolveP: 78.633 [ms]
smoothSolver:  Solving for nuTilda, Initial residual = 0.02486408280657568, Final residual = 0.001487872505096175, No Iterations 3
[INFO] TimeStep: 9069.504999999999 [ms]
ExecutionTime = 409.57 s  ClockTime = 412 s

Time = 33

velocityDampingConstraint velocityDamping damped 0 (0%) of cells, with max limit 300
[INFO] MatrixAssemblyU: 1669.116 [ms]
smoothSolver:  Solving for Ux, Initial residual = 0.01091935946287478, Final residual = 0.001068473532608744, No Iterations 12
smoothSolver:  Solving for Uy, Initial residual = 0.05663166341173807, Final residual = 0.005631835202905618, No Iterations 12
smoothSolver:  Solving for Uz, Initial residual = 0.05198327321727016, Final residual = 0.005043623080693889, No Iterations 12
[INFO] MomentumPredictor: 1475.393 [ms]
[INFO] MatrixAssemblyPI: 327.46 [ms]
[INFO] MatrixAssemblyPII: 153.361 [ms]
DICPCG:  Solving for p, Initial residual = 0.04967021119019516, Final residual = 0.0004921623905717543, No Iterations 99
[INFO] SolveP: 4230.677 [ms]
time step continuity errors : sum local = 0.004730941267140952, global = 0.0009733907395228873, cumulative = 0.003966449963165922
[INFO] postSolveP: 78.959 [ms]
smoothSolver:  Solving for nuTilda, Initial residual = 0.01598475038874435, Final residual = 0.001480414037770314, No Iterations 3
[INFO] TimeStep: 9034.418 [ms]
ExecutionTime = 419.84 s  ClockTime = 422 s

Time = 34

velocityDampingConstraint velocityDamping damped 0 (0%) of cells, with max limit 300
[INFO] MatrixAssemblyU: 1667.837 [ms]
smoothSolver:  Solving for Ux, Initial residual = 0.01103353097477334, Final residual = 0.001078416369953786, No Iterations 12
smoothSolver:  Solving for Uy, Initial residual = 0.05912007352272543, Final residual = 0.005880437491046251, No Iterations 12
smoothSolver:  Solving for Uz, Initial residual = 0.05448931249658876, Final residual = 0.005336535308216047, No Iterations 12
[INFO] MomentumPredictor: 1473.027 [ms]
[INFO] MatrixAssemblyPI: 328.116 [ms]
[INFO] MatrixAssemblyPII: 154.403 [ms]
DICPCG:  Solving for p, Initial residual = 0.05180589083653316, Final residual = 0.0005093666443699241, No Iterations 96
[INFO] SolveP: 4097.837 [ms]
time step continuity errors : sum local = 0.004951841798123919, global = 0.0009069238193390797, cumulative = 0.004873373782505002
[INFO] postSolveP: 79.202 [ms]
smoothSolver:  Solving for nuTilda, Initial residual = 0.02322243169407738, Final residual = 0.001393865094712786, No Iterations 3
[INFO] TimeStep: 8900.74 [ms]
ExecutionTime = 429.98 s  ClockTime = 432 s

Time = 35

velocityDampingConstraint velocityDamping damped 0 (0%) of cells, with max limit 300
[INFO] MatrixAssemblyU: 1667.711 [ms]
smoothSolver:  Solving for Ux, Initial residual = 0.01109058922849599, Final residual = 0.001091361792229587, No Iterations 12
smoothSolver:  Solving for Uy, Initial residual = 0.06166777919255936, Final residual = 0.005249078072085277, No Iterations 13
smoothSolver:  Solving for Uz, Initial residual = 0.05701174606616786, Final residual = 0.005605216177160486, No Iterations 12
[INFO] MomentumPredictor: 1508.689 [ms]
[INFO] MatrixAssemblyPI: 328.166 [ms]
[INFO] MatrixAssemblyPII: 152.091 [ms]
DICPCG:  Solving for p, Initial residual = 0.05361208062887601, Final residual = 0.0005278636875758211, No Iterations 94
[INFO] SolveP: 4017.929 [ms]
time step continuity errors : sum local = 0.005189905286289591, global = 0.0007884182939869905, cumulative = 0.005661792076491992
[INFO] postSolveP: 78.935 [ms]
smoothSolver:  Solving for nuTilda, Initial residual = 0.01501646011687479, Final residual = 0.001382824112240042, No Iterations 3
[INFO] TimeStep: 8850.535 [ms]
ExecutionTime = 440.07 s  ClockTime = 443 s

Time = 36

velocityDampingConstraint velocityDamping damped 0 (0%) of cells, with max limit 300
[INFO] MatrixAssemblyU: 1667.313 [ms]
smoothSolver:  Solving for Ux, Initial residual = 0.0113637688252822, Final residual = 0.001113463881504308, No Iterations 12
smoothSolver:  Solving for Uy, Initial residual = 0.06367346729671314, Final residual = 0.005505005000979162, No Iterations 13
smoothSolver:  Solving for Uz, Initial residual = 0.05965256005511289, Final residual = 0.005866485569041688, No Iterations 12
[INFO] MomentumPredictor: 1509.475 [ms]
[INFO] MatrixAssemblyPI: 328.076 [ms]
[INFO] MatrixAssemblyPII: 154.253 [ms]
DICPCG:  Solving for p, Initial residual = 0.0549781618879906, Final residual = 0.000541858122540834, No Iterations 93
[INFO] SolveP: 3974.381 [ms]
time step continuity errors : sum local = 0.005374816376053934, global = 0.0006173541877118875, cumulative = 0.006279146264203879
[INFO] postSolveP: 78.893 [ms]
smoothSolver:  Solving for nuTilda, Initial residual = 0.02180806049726173, Final residual = 0.00130793211122788, No Iterations 3
[INFO] TimeStep: 8806.522000000001 [ms]
ExecutionTime = 450.1 s  ClockTime = 453 s

Time = 37

velocityDampingConstraint velocityDamping damped 0 (0%) of cells, with max limit 300
[INFO] MatrixAssemblyU: 1668.721 [ms]
smoothSolver:  Solving for Ux, Initial residual = 0.01157780294941733, Final residual = 0.001139198229576816, No Iterations 12
smoothSolver:  Solving for Uy, Initial residual = 0.06549409160011582, Final residual = 0.0057444415232028, No Iterations 13
smoothSolver:  Solving for Uz, Initial residual = 0.06224358463938084, Final residual = 0.006084000174732258, No Iterations 12
[INFO] MomentumPredictor: 1504.952 [ms]
[INFO] MatrixAssemblyPI: 328.664 [ms]
[INFO] MatrixAssemblyPII: 154.53 [ms]
DICPCG:  Solving for p, Initial residual = 0.05677055017523173, Final residual = 0.0005675755296383465, No Iterations 89
[INFO] SolveP: 3801.967 [ms]
time step continuity errors : sum local = 0.005676898773746073, global = 0.0004263045582637793, cumulative = 0.006705450822467659
[INFO] postSolveP: 79.124 [ms]
smoothSolver:  Solving for nuTilda, Initial residual = 0.01420262284062775, Final residual = 0.001295769665008124, No Iterations 3
[INFO] TimeStep: 8635.379999999999 [ms]
ExecutionTime = 459.98 s  ClockTime = 463 s

Time = 38

velocityDampingConstraint velocityDamping damped 0 (0%) of cells, with max limit 300
[INFO] MatrixAssemblyU: 1667.622 [ms]
smoothSolver:  Solving for Ux, Initial residual = 0.01189428508114483, Final residual = 0.001161801597946197, No Iterations 12
smoothSolver:  Solving for Uy, Initial residual = 0.06703471082320973, Final residual = 0.005924862898920595, No Iterations 13
smoothSolver:  Solving for Uz, Initial residual = 0.06497485103045392, Final residual = 0.006279646826436614, No Iterations 12
[INFO] MomentumPredictor: 1505.409 [ms]
[INFO] MatrixAssemblyPI: 327.433 [ms]
[INFO] MatrixAssemblyPII: 154.105 [ms]
DICPCG:  Solving for p, Initial residual = 0.05745700372010205, Final residual = 0.0005604890326560728, No Iterations 89
[INFO] SolveP: 3810.566 [ms]
time step continuity errors : sum local = 0.00563809309077059, global = 0.0002110639159062161, cumulative = 0.006916514738373875
[INFO] postSolveP: 78.685 [ms]
smoothSolver:  Solving for nuTilda, Initial residual = 0.02058204730802499, Final residual = 0.001232128307988948, No Iterations 3
[INFO] TimeStep: 8642.74 [ms]
ExecutionTime = 469.85 s  ClockTime = 473 s

Time = 39

velocityDampingConstraint velocityDamping damped 0 (0%) of cells, with max limit 300
[INFO] MatrixAssemblyU: 1663.431 [ms]
smoothSolver:  Solving for Ux, Initial residual = 0.01198825143128333, Final residual = 0.00117445463949248, No Iterations 12
smoothSolver:  Solving for Uy, Initial residual = 0.06853259537189059, Final residual = 0.006094385773780463, No Iterations 13
smoothSolver:  Solving for Uz, Initial residual = 0.06747467451506368, Final residual = 0.006498429215470176, No Iterations 12
[INFO] MomentumPredictor: 1509.445 [ms]
[INFO] MatrixAssemblyPI: 328.975 [ms]
[INFO] MatrixAssemblyPII: 154.484 [ms]
DICPCG:  Solving for p, Initial residual = 0.0575204483916403, Final residual = 0.0005681790582769444, No Iterations 88
[INFO] SolveP: 3774.596 [ms]
time step continuity errors : sum local = 0.005740635210539316, global = -1.576813420698143e-05, cumulative = 0.006900746604166894
[INFO] postSolveP: 78.881 [ms]
smoothSolver:  Solving for nuTilda, Initial residual = 0.0135432569192777, Final residual = 0.001221643646880554, No Iterations 3
[INFO] TimeStep: 8603.233 [ms]
ExecutionTime = 479.69 s  ClockTime = 482 s

Time = 40

velocityDampingConstraint velocityDamping damped 0 (0%) of cells, with max limit 300
[INFO] MatrixAssemblyU: 1664.04 [ms]
smoothSolver:  Solving for Ux, Initial residual = 0.01212882732329063, Final residual = 0.001185276610118345, No Iterations 12
smoothSolver:  Solving for Uy, Initial residual = 0.06973090355292286, Final residual = 0.006257288436798178, No Iterations 13
smoothSolver:  Solving for Uz, Initial residual = 0.0693012916871847, Final residual = 0.006733379722746262, No Iterations 12
[INFO] MomentumPredictor: 1505.265 [ms]
[INFO] MatrixAssemblyPI: 327.963 [ms]
[INFO] MatrixAssemblyPII: 153.986 [ms]
DICPCG:  Solving for p, Initial residual = 0.05768648599919734, Final residual = 0.0005699931472621652, No Iterations 87
[INFO] SolveP: 3725.328 [ms]
time step continuity errors : sum local = 0.005768679352409411, global = -0.0002409257143844246, cumulative = 0.006659820889782469
[INFO] postSolveP: 79.309 [ms]
smoothSolver:  Solving for nuTilda, Initial residual = 0.01948056620820571, Final residual = 0.001168441547918714, No Iterations 3
[INFO] TimeStep: 8552.262000000001 [ms]
ExecutionTime = 489.48 s  ClockTime = 492 s

Time = 41

velocityDampingConstraint velocityDamping damped 0 (0%) of cells, with max limit 300
[INFO] MatrixAssemblyU: 1662.761 [ms]
smoothSolver:  Solving for Ux, Initial residual = 0.01206689001985189, Final residual = 0.001194792668847688, No Iterations 12
smoothSolver:  Solving for Uy, Initial residual = 0.07041850959207197, Final residual = 0.006419627998288622, No Iterations 13
smoothSolver:  Solving for Uz, Initial residual = 0.0704248978868762, Final residual = 0.006930803559738317, No Iterations 12
[INFO] MomentumPredictor: 1499.926 [ms]
[INFO] MatrixAssemblyPI: 328.434 [ms]
[INFO] MatrixAssemblyPII: 153.214 [ms]
DICPCG:  Solving for p, Initial residual = 0.05725772287829026, Final residual = 0.0005700042909271371, No Iterations 82
[INFO] SolveP: 3511.087 [ms]
time step continuity errors : sum local = 0.005772238866244005, global = -0.0004430797052782602, cumulative = 0.006216741184504209
[INFO] postSolveP: 78.84699999999999 [ms]
smoothSolver:  Solving for nuTilda, Initial residual = 0.01295205060677678, Final residual = 0.001159841583243738, No Iterations 3
[INFO] TimeStep: 8331.138000000001 [ms]
ExecutionTime = 499.04 s  ClockTime = 502 s

Time = 42

velocityDampingConstraint velocityDamping damped 0 (0%) of cells, with max limit 300
[INFO] MatrixAssemblyU: 1664.57 [ms]
smoothSolver:  Solving for Ux, Initial residual = 0.01210369071703622, Final residual = 0.001201660940486865, No Iterations 12
smoothSolver:  Solving for Uy, Initial residual = 0.07096570383556398, Final residual = 0.006607145738104276, No Iterations 13
smoothSolver:  Solving for Uz, Initial residual = 0.07097925403527058, Final residual = 0.006035444618768647, No Iterations 13
[INFO] MomentumPredictor: 1535.369 [ms]
[INFO] MatrixAssemblyPI: 327.68 [ms]
[INFO] MatrixAssemblyPII: 154.537 [ms]
DICPCG:  Solving for p, Initial residual = 0.05693156577213827, Final residual = 0.0005651034041561136, No Iterations 86
[INFO] SolveP: 3673.109 [ms]
time step continuity errors : sum local = 0.005718197178920802, global = -0.0006475110005702026, cumulative = 0.005569230183934007
[INFO] postSolveP: 79.29000000000001 [ms]
smoothSolver:  Solving for nuTilda, Initial residual = 0.01846989028244514, Final residual = 0.001113262718183479, No Iterations 3
[INFO] TimeStep: 8528.563 [ms]
ExecutionTime = 508.8 s  ClockTime = 512 s

Time = 43

velocityDampingConstraint velocityDamping damped 0 (0%) of cells, with max limit 300
[INFO] MatrixAssemblyU: 1666.685 [ms]
smoothSolver:  Solving for Ux, Initial residual = 0.0120107555819631, Final residual = 0.001029510850928169, No Iterations 13
smoothSolver:  Solving for Uy, Initial residual = 0.07172299691330435, Final residual = 0.006830757950129589, No Iterations 13
smoothSolver:  Solving for Uz, Initial residual = 0.070644484224647, Final residual = 0.006118990931293488, No Iterations 13
[INFO] MomentumPredictor: 1574.706 [ms]
[INFO] MatrixAssemblyPI: 328.781 [ms]
[INFO] MatrixAssemblyPII: 153.841 [ms]
DICPCG:  Solving for p, Initial residual = 0.05628811696851325, Final residual = 0.0005619811671340711, No Iterations 85
[INFO] SolveP: 3633.578 [ms]
time step continuity errors : sum local = 0.005668571105118379, global = -0.0008539565795270053, cumulative = 0.004715273604407001
[INFO] postSolveP: 79.86 [ms]
smoothSolver:  Solving for nuTilda, Initial residual = 0.01236390967890649, Final residual = 0.001103576893230404, No Iterations 3
[INFO] TimeStep: 8533.074000000001 [ms]
ExecutionTime = 518.5700000000001 s  ClockTime = 521 s

Time = 44

velocityDampingConstraint velocityDamping damped 0 (0%) of cells, with max limit 300
[INFO] MatrixAssemblyU: 1664.518 [ms]
smoothSolver:  Solving for Ux, Initial residual = 0.01202292270199497, Final residual = 0.001038011271428954, No Iterations 13
smoothSolver:  Solving for Uy, Initial residual = 0.07220191822420795, Final residual = 0.007035613897328762, No Iterations 13
smoothSolver:  Solving for Uz, Initial residual = 0.06999205953230948, Final residual = 0.006187958644740989, No Iterations 13
[INFO] MomentumPredictor: 1571.098 [ms]
[INFO] MatrixAssemblyPI: 328.507 [ms]
[INFO] MatrixAssemblyPII: 154.399 [ms]
DICPCG:  Solving for p, Initial residual = 0.05554231238961301, Final residual = 0.0005515326394213408, No Iterations 106
[INFO] SolveP: 4518.49 [ms]
time step continuity errors : sum local = 0.005520172781357697, global = -0.001044628107887777, cumulative = 0.003670645496519224
[INFO] postSolveP: 78.303 [ms]
smoothSolver:  Solving for nuTilda, Initial residual = 0.01752613531888239, Final residual = 0.001060915993075909, No Iterations 3
[INFO] TimeStep: 9412.496999999999 [ms]
ExecutionTime = 529.2 s  ClockTime = 532 s

Time = 45

velocityDampingConstraint velocityDamping damped 0 (0%) of cells, with max limit 300
[INFO] MatrixAssemblyU: 1662.292 [ms]
smoothSolver:  Solving for Ux, Initial residual = 0.01189107232181462, Final residual = 0.001047363823107623, No Iterations 13
smoothSolver:  Solving for Uy, Initial residual = 0.07233435452926214, Final residual = 0.007174990769157061, No Iterations 13
smoothSolver:  Solving for Uz, Initial residual = 0.06924516442143366, Final residual = 0.006254530229706028, No Iterations 13
[INFO] MomentumPredictor: 1575.97 [ms]
[INFO] MatrixAssemblyPI: 328.181 [ms]
[INFO] MatrixAssemblyPII: 153.77 [ms]
DICPCG:  Solving for p, Initial residual = 0.0551481121485635, Final residual = 0.0005406675507786671, No Iterations 87
[INFO] SolveP: 3732.935 [ms]
time step continuity errors : sum local = 0.005338045571021229, global = -0.001211688355676142, cumulative = 0.002458957140843083
[INFO] postSolveP: 78.432 [ms]
smoothSolver:  Solving for nuTilda, Initial residual = 0.01180226776803816, Final residual = 0.001049832406710162, No Iterations 3
[INFO] TimeStep: 8627.499 [ms]
ExecutionTime = 539.0599999999999 s  ClockTime = 542 s

Time = 46

velocityDampingConstraint velocityDamping damped 0 (0%) of cells, with max limit 300
[INFO] MatrixAssemblyU: 1665.467 [ms]
smoothSolver:  Solving for Ux, Initial residual = 0.01176263799565585, Final residual = 0.001050418310910236, No Iterations 13
smoothSolver:  Solving for Uy, Initial residual = 0.07211138710898546, Final residual = 0.006160155888751125, No Iterations 14
smoothSolver:  Solving for Uz, Initial residual = 0.06795268788794763, Final residual = 0.006298909503302179, No Iterations 13
[INFO] MomentumPredictor: 1595.776 [ms]
[INFO] MatrixAssemblyPI: 327.899 [ms]
[INFO] MatrixAssemblyPII: 153.692 [ms]
DICPCG:  Solving for p, Initial residual = 0.05451873971199751, Final residual = 0.0005371755270596393, No Iterations 218
[INFO] SolveP: 9226.056 [ms]
time step continuity errors : sum local = 0.005251914599083901, global = -0.0003038736369499599, cumulative = 0.002155083503893123
[INFO] postSolveP: 79.2 [ms]
smoothSolver:  Solving for nuTilda, Initial residual = 0.01664591288315659, Final residual = 0.001012505282678108, No Iterations 3
[INFO] TimeStep: 14145.273 [ms]
ExecutionTime = 554.4 s  ClockTime = 558 s

Time = 47

velocityDampingConstraint velocityDamping damped 0 (0%) of cells, with max limit 300
[INFO] MatrixAssemblyU: 1663.634 [ms]
smoothSolver:  Solving for Ux, Initial residual = 0.01173370709874638, Final residual = 0.001057745574837086, No Iterations 13
smoothSolver:  Solving for Uy, Initial residual = 0.07214284112173541, Final residual = 0.006165360745554505, No Iterations 14
smoothSolver:  Solving for Uz, Initial residual = 0.06709429687074622, Final residual = 0.006359837467311465, No Iterations 13
[INFO] MomentumPredictor: 1611.165 [ms]
[INFO] MatrixAssemblyPI: 328.261 [ms]
[INFO] MatrixAssemblyPII: 153.796 [ms]
DICPCG:  Solving for p, Initial residual = 0.05589907116267299, Final residual = 0.0005359566472340905, No Iterations 86
[INFO] SolveP: 3687.374 [ms]
time step continuity errors : sum local = 0.005004780919509365, global = 0.0006312291517693916, cumulative = 0.002786312655662515
[INFO] postSolveP: 78.554 [ms]
smoothSolver:  Solving for nuTilda, Initial residual = 0.01128454531586538, Final residual = 0.001002956067089497, No Iterations 3
[INFO] TimeStep: 8616.379000000001 [ms]
ExecutionTime = 564.25 s  ClockTime = 567 s

Time = 48

velocityDampingConstraint velocityDamping damped 0 (0%) of cells, with max limit 300
[INFO] MatrixAssemblyU: 1660.476 [ms]
smoothSolver:  Solving for Ux, Initial residual = 0.01164935525065246, Final residual = 0.00106267286331634, No Iterations 13
smoothSolver:  Solving for Uy, Initial residual = 0.07131141471780271, Final residual = 0.006133479407474536, No Iterations 14
smoothSolver:  Solving for Uz, Initial residual = 0.06564211025165313, Final residual = 0.006338960760454703, No Iterations 13
[INFO] MomentumPredictor: 1601.726 [ms]
[INFO] MatrixAssemblyPI: 328.03 [ms]
[INFO] MatrixAssemblyPII: 153.908 [ms]
DICPCG:  Solving for p, Initial residual = 0.05485781917769059, Final residual = 0.0005482623723235109, No Iterations 222
[INFO] SolveP: 9380.885 [ms]
time step continuity errors : sum local = 0.005099684967597014, global = -0.0001050482075306161, cumulative = 0.002681264448131899
[INFO] postSolveP: 79.155 [ms]
smoothSolver:  Solving for nuTilda, Initial residual = 0.01586432859642369, Final residual = 0.0009714414939093972, No Iterations 3
[INFO] TimeStep: 14299.237 [ms]
ExecutionTime = 579.75 s  ClockTime = 583 s

Time = 49

velocityDampingConstraint velocityDamping damped 0 (0%) of cells, with max limit 300
[INFO] MatrixAssemblyU: 1663.433 [ms]
smoothSolver:  Solving for Ux, Initial residual = 0.01141749542047939, Final residual = 0.001067483399831758, No Iterations 13
smoothSolver:  Solving for Uy, Initial residual = 0.07100611947389586, Final residual = 0.006128598764917917, No Iterations 14
smoothSolver:  Solving for Uz, Initial residual = 0.06487167196779488, Final residual = 0.006333564101143186, No Iterations 13
[INFO] MomentumPredictor: 1605.99 [ms]
[INFO] MatrixAssemblyPI: 327.645 [ms]
[INFO] MatrixAssemblyPII: 154.855 [ms]
DICPCG:  Solving for p, Initial residual = 0.05217692244506315, Final residual = 0.0005138742805256107, No Iterations 89
[INFO] SolveP: 3811.304 [ms]
time step continuity errors : sum local = 0.004955794741923742, global = -0.0002982621128089843, cumulative = 0.002383002335322915
[INFO] postSolveP: 78.783 [ms]
smoothSolver:  Solving for nuTilda, Initial residual = 0.01085035500194853, Final residual = 0.0009653164502758061, No Iterations 3
[INFO] TimeStep: 8735.648999999999 [ms]
ExecutionTime = 589.71 s  ClockTime = 593 s

Time = 50

velocityDampingConstraint velocityDamping damped 0 (0%) of cells, with max limit 300
[INFO] MatrixAssemblyU: 1664.692 [ms]
smoothSolver:  Solving for Ux, Initial residual = 0.01140107500696051, Final residual = 0.001068656427788423, No Iterations 13
smoothSolver:  Solving for Uy, Initial residual = 0.06966447576425629, Final residual = 0.006042568891926453, No Iterations 14
smoothSolver:  Solving for Uz, Initial residual = 0.06382222262114891, Final residual = 0.006291691754695086, No Iterations 13
[INFO] MomentumPredictor: 1601.062 [ms]
[INFO] MatrixAssemblyPI: 327.98 [ms]
[INFO] MatrixAssemblyPII: 154.422 [ms]
DICPCG:  Solving for p, Initial residual = 0.05197017276477761, Final residual = 0.0005140100507095367, No Iterations 98
[INFO] SolveP: 4190.433 [ms]
time step continuity errors : sum local = 0.004921076620930418, global = -0.0005851105561300451, cumulative = 0.00179789177919287
[INFO] postSolveP: 78.977 [ms]
smoothSolver:  Solving for nuTilda, Initial residual = 0.01518187002406473, Final residual = 0.0009396159937110449, No Iterations 3
[INFO] TimeStep: 9111.199000000001 [ms]
ExecutionTime = 600.0599999999999 s  ClockTime = 603 s

End

Finalising parallel run
