/*---------------------------------------------------------------------------*\
| =========                 |                                                 |
| \\      /  F ield         | OpenFOAM: The Open Source CFD Toolbox           |
|  \\    /   O peration     | Version:  2306                                  |
|   \\  /    A nd           | Website:  www.openfoam.com                      |
|    \\/     M anipulation  |                                                 |
\*---------------------------------------------------------------------------*/
Build  : a6e826bd55-20230630 OPENFOAM=2306 version=v2306
Arch   : "LSB;label=32;scalar=64"
Exec   : simpleFoam -parallel -case /home/greole/data/code/exasim_project/micro_benchmarks/WindsorBody/workspace/6a6e756bfae0e094e1914cdd3871c1f5/case
Date   : Aug 27 2023
Time   : 18:04:15
Host   : nla-gpu2.ianm.kit.edu
PID    : 3073030
I/O    : uncollated
Case   : /home/greole/data/code/exasim_project/micro_benchmarks/WindsorBody/workspace/6a6e756bfae0e094e1914cdd3871c1f5/case
nProcs : 32
Hosts  :
(
    (nla-gpu2.ianm.kit.edu 32)
)
Pstream initialized with:
    floatTransfer      : false
    nProcsSimpleSum    : 0
    nonBlockingExchange: 0 (tuning: 0)
    exchange algorithm : -1
    commsType          : nonBlocking
    polling iterations : 0
trapFpe: Floating point exception trapping enabled (FOAM_SIGFPE).
fileModificationChecking : Monitoring run-time modified files using timeStampMaster (fileModificationSkew 5, maxFileModificationPolls 20)
allowSystemOperations : Allowing user-supplied system call operations

// * * * * * * * * * * * * * * * * * * * * * * * * * * * * * * * * * * * * * //
Create time

--> FOAM Warning : 
    From void* Foam::dlLibraryTable::openLibrary(const Foam::fileName&, bool)
    in file db/dynamicLibrary/dlLibraryTable/dlLibraryTable.C at line 188
    Could not load "libpetscFoam.so"
libpetscFoam.so: cannot open shared object file: No such file or directory
Create mesh for time = 0


SIMPLE: convergence criteria
    field p	 tolerance 1e-08
    field U	 tolerance 1e-08
    field k	 tolerance 1e-08
    field omega	 tolerance 1e-08
    field nuTilda	 tolerance 1e-08

Reading field p

Reading field U

Reading/calculating face flux field phi

Selecting incompressible transport model Newtonian
Selecting turbulence model type RAS
Selecting RAS turbulence model SpalartAllmaras
Selecting patchDistMethod meshWave
ft2 term: inactive
RAS
{
    RASModel        SpalartAllmaras;
    turbulence      on;
    printCoeffs     on;
    sigmaNut        0.66666;
    kappa           0.41;
    Cb1             0.1355;
    Cb2             0.622;
    Cw2             0.3;
    Cw3             2;
    Cv1             7.1;
    Cs              0.3;
    ck              0.07000000000000001;
    ft2             false;
    Ct3             1.2;
    Ct4             0.5;
}

No MRF models present

Creating finite volume options from "system/fvOptions"

Selecting finite volume options type velocityDampingConstraint
    Source: velocityDamping
    - selecting all cells
    - selected 50457088 cell(s) with volume 222.6066441282529

Starting time loop

--> FOAM Warning : 
    From bool Foam::functionObjectList::read()
    in file db/functionObjects/functionObjectList/functionObjectList.C at line 1035
    Reading "system/controlDict" at line 2 to 41
    Entry 'lref' is not a dictionary
--> FOAM Warning : 
    From bool Foam::functionObjectList::read()
    in file db/functionObjects/functionObjectList/functionObjectList.C at line 1035
    Reading "system/controlDict" at line 2 to 41
    Entry 'Aref' is not a dictionary
--> FOAM Warning : 
    From bool Foam::functionObjectList::read()
    in file db/functionObjects/functionObjectList/functionObjectList.C at line 1035
    Reading "system/controlDict" at line 2 to 41
    Entry 'yawAngle' is not a dictionary
--> FOAM Warning : 
    From bool Foam::functionObjectList::read()
    in file db/functionObjects/functionObjectList/functionObjectList.C at line 1035
    Reading "system/controlDict" at line 2 to 41
    Entry 'lDomain' is not a dictionary
--> FOAM Warning : 
    From bool Foam::functionObjectList::read()
    in file db/functionObjects/functionObjectList/functionObjectList.C at line 1035
    Reading "system/controlDict" at line 2 to 41
    Entry 'bDomain' is not a dictionary
--> FOAM Warning : 
    From bool Foam::functionObjectList::read()
    in file db/functionObjects/functionObjectList/functionObjectList.C at line 1035
    Reading "system/controlDict" at line 2 to 41
    Entry 'hDomain' is not a dictionary
--> FOAM Warning : 
    From bool Foam::functionObjectList::read()
    in file db/functionObjects/functionObjectList/functionObjectList.C at line 1035
    Reading "system/controlDict" at line 2 to 41
    Entry 'xCenter' is not a dictionary
--> FOAM Warning : 
    From bool Foam::functionObjectList::read()
    in file db/functionObjects/functionObjectList/functionObjectList.C at line 1035
    Reading "system/controlDict" at line 2 to 41
    Entry 'yCenter' is not a dictionary
--> FOAM Warning : 
    From bool Foam::functionObjectList::read()
    in file db/functionObjects/functionObjectList/functionObjectList.C at line 1035
    Reading "system/controlDict" at line 2 to 41
    Entry 'zCenter' is not a dictionary
--> FOAM Warning : 
    From bool Foam::functionObjectList::read()
    in file db/functionObjects/functionObjectList/functionObjectList.C at line 1035
    Reading "system/controlDict" at line 2 to 41
    Entry 'inletPatch' is not a dictionary
--> FOAM Warning : 
    From bool Foam::functionObjectList::read()
    in file db/functionObjects/functionObjectList/functionObjectList.C at line 1035
    Reading "system/controlDict" at line 2 to 41
    Entry 'outletPatch' is not a dictionary
--> FOAM Warning : 
    From bool Foam::functionObjectList::read()
    in file db/functionObjects/functionObjectList/functionObjectList.C at line 1035
    Reading "system/controlDict" at line 2 to 41
    Entry 'wallPatches' is not a dictionary
--> FOAM Warning : 
    From bool Foam::functionObjectList::read()
    in file db/functionObjects/functionObjectList/functionObjectList.C at line 1035
    Reading "system/controlDict" at line 2 to 41
    Entry 'forcesWallPatches' is not a dictionary
--> FOAM Warning : 
    From bool Foam::functionObjectList::read()
    in file db/functionObjects/functionObjectList/functionObjectList.C at line 1035
    Reading "system/controlDict" at line 2 to 41
    Entry 'symmPatches' is not a dictionary
--> FOAM Warning : 
    From bool Foam::functionObjectList::read()
    in file db/functionObjects/functionObjectList/functionObjectList.C at line 1035
    Reading "system/controlDict" at line 2 to 41
    Entry 'Uinf' is not a dictionary
--> FOAM Warning : 
    From bool Foam::functionObjectList::read()
    in file db/functionObjects/functionObjectList/functionObjectList.C at line 1035
    Reading "system/controlDict" at line 2 to 41
    Entry 'UinfMag' is not a dictionary
--> FOAM Warning : 
    From bool Foam::functionObjectList::read()
    in file db/functionObjects/functionObjectList/functionObjectList.C at line 1035
    Reading "system/controlDict" at line 2 to 41
    Entry 'nu' is not a dictionary
--> FOAM Warning : 
    From bool Foam::functionObjectList::read()
    in file db/functionObjects/functionObjectList/functionObjectList.C at line 1035
    Reading "system/controlDict" at line 2 to 41
    Entry 'pref' is not a dictionary
--> FOAM Warning : 
    From bool Foam::functionObjectList::read()
    in file db/functionObjects/functionObjectList/functionObjectList.C at line 1035
    Reading "system/controlDict" at line 2 to 41
    Entry 'viscRatio' is not a dictionary
--> FOAM Warning : 
    From bool Foam::functionObjectList::read()
    in file db/functionObjects/functionObjectList/functionObjectList.C at line 1035
    Reading "system/controlDict" at line 2 to 41
    Entry 'Tu' is not a dictionary
--> FOAM Warning : 
    From bool Foam::functionObjectList::read()
    in file db/functionObjects/functionObjectList/functionObjectList.C at line 1035
    Reading "system/controlDict" at line 2 to 41
    Entry 'LESturbModel' is not a dictionary
--> FOAM Warning : 
    From bool Foam::functionObjectList::read()
    in file db/functionObjects/functionObjectList/functionObjectList.C at line 1035
    Reading "system/controlDict" at line 2 to 41
    Entry 'RASturbModel' is not a dictionary
--> FOAM Warning : 
    From bool Foam::functionObjectList::read()
    in file db/functionObjects/functionObjectList/functionObjectList.C at line 1035
    Reading "system/controlDict" at line 2 to 41
    Entry 'deltaTurb' is not a dictionary
--> FOAM Warning : 
    From bool Foam::functionObjectList::read()
    in file db/functionObjects/functionObjectList/functionObjectList.C at line 1035
    Reading "system/controlDict" at line 2 to 41
    Entry 'dt' is not a dictionary
--> FOAM Warning : 
    From bool Foam::functionObjectList::read()
    in file db/functionObjects/functionObjectList/functionObjectList.C at line 1035
    Reading "system/controlDict" at line 2 to 41
    Entry 'tAvg' is not a dictionary
--> FOAM Warning : 
    From bool Foam::functionObjectList::read()
    in file db/functionObjects/functionObjectList/functionObjectList.C at line 1035
    Reading "system/controlDict" at line 2 to 41
    Entry 'tEnd' is not a dictionary
--> FOAM Warning : 
    From bool Foam::functionObjectList::read()
    in file db/functionObjects/functionObjectList/functionObjectList.C at line 1035
    Reading "system/controlDict" at line 2 to 41
    Entry 'writeInterval_' is not a dictionary
--> FOAM Warning : 
    From bool Foam::functionObjectList::read()
    in file db/functionObjects/functionObjectList/functionObjectList.C at line 1035
    Reading "system/controlDict" at line 2 to 41
    Entry 'nCores' is not a dictionary
--> FOAM Warning : 
    From bool Foam::functionObjectList::read()
    in file db/functionObjects/functionObjectList/functionObjectList.C at line 1035
    Reading "system/controlDict" at line 2 to 41
    Entry 'interpScheme' is not a dictionary
--> FOAM Warning : 
    From bool Foam::functionObjectList::read()
    in file db/functionObjects/functionObjectList/functionObjectList.C at line 1035
    Reading "system/controlDict" at line 2 to 41
    Entry 'probeField' is not a dictionary
wallShearStress wallShearStress:
    processing wall patches: 
        Windsor_Body
        CFDWT_Floor
        Windsor_Pins
        Windsor_Base
        Windsor_Body_2
        CFDWT_Floor_2
        Windsor_Pins_2
        Windsor_Base_2
        Windsor_Body_3
        CFDWT_Floor_3
        Windsor_Pins_3
        Windsor_Base_3
        Windsor_Body_4
        CFDWT_Floor_4
        Windsor_Pins_4
        Windsor_Base_4
        Windsor_Body_5
        CFDWT_Floor_5
        Windsor_Pins_5
        Windsor_Base_5
        Windsor_Body_6
        CFDWT_Floor_6
        Windsor_Pins_6
        Windsor_Base_6
        Windsor_Body_7
        CFDWT_Floor_7
        Windsor_Pins_7
        Windsor_Base_7
        Windsor_Body_8
        CFDWT_Floor_8
        Windsor_Pins_8
        Windsor_Base_8

pressure calc_cp:
    Operating mode: staticCoeff
    Not including hydrostatic effects

forceCoeffs forceCoeffsAll:
    rho: rhoInf
    Freestream density (rhoInf) set to 1
    Not including porosity effects
    magUInf: 40
    lRef   : 0.6375
    Aref   : 0.1124
    rhoInf : 1
    Selecting all coefficients
    - Drag force: Cd
    - Drag force front: Cd(f)
    - Drag force rear: Cd(r)
    - Lift force: Cl
    - Lift force front: Cl(f)
    - Lift force rear: Cl(r)
    - Pitch moment: CmPitch
    - Roll moment: CmRoll
    - Yaw moment: CmYaw
    - Side force: Cs
    - Side force front: Cs(f)
    - Side force rear: Cs(r)


forceCoeffs dragCoeffBase:
    rho: rhoInf
    Freestream density (rhoInf) set to 1
    Not including porosity effects
    magUInf: 40
    lRef   : 0.6375
    Aref   : 0.1124
    rhoInf : 1
    Selecting coefficients:
    - Drag force: Cd


Time = 1

velocityDampingConstraint velocityDamping damped 0 (0%) of cells, with max limit 300
[INFO] MatrixAssemblyU: 3563.087 [ms]
smoothSolver:  Solving for Ux, Initial residual = 0.9999999999992296, Final residual = 0.087305782345205, No Iterations 15
smoothSolver:  Solving for Uy, Initial residual = 1, Final residual = 0.08967552546616946, No Iterations 31
smoothSolver:  Solving for Uz, Initial residual = 1, Final residual = 0.0328581754778575, No Iterations 2
[INFO] MomentumPredictor: 3885.855 [ms]
[INFO] MatrixAssemblyPI: 664.944 [ms]
[INFO] MatrixAssemblyPII: 310.861 [ms]
DICPCG:  Solving for p, Initial residual = 1, Final residual = 0.00949847902694408, No Iterations 421
[INFO] SolveP: 36913.919 [ms]
time step continuity errors : sum local = 0.003485036116782809, global = 8.384975454546207e-05, cumulative = 8.384975454546207e-05
[INFO] postSolveP: 161.221 [ms]
smoothSolver:  Solving for nuTilda, Initial residual = 0.9999999959863484, Final residual = 0.06428775471593849, No Iterations 3
[INFO] TimeStep: 47767.117 [ms]
ExecutionTime = 90.86 s  ClockTime = 91 s

--> FOAM Warning : 
    From virtual bool Foam::functionObjects::fieldSelection::checkSelection()
    in file functionObjects/fieldSelections/fieldSelection/fieldSelection.C at line 166
    Field k not found
--> FOAM Warning : 
    From virtual bool Foam::functionObjects::fieldSelection::checkSelection()
    in file functionObjects/fieldSelections/fieldSelection/fieldSelection.C at line 166
    Field gammaInt not found
--> FOAM Warning : 
    From virtual bool Foam::functionObjects::fieldSelection::checkSelection()
    in file functionObjects/fieldSelections/fieldSelection/fieldSelection.C at line 166
    Field omega not found
--> FOAM Warning : 
    From virtual bool Foam::functionObjects::fieldSelection::checkSelection()
    in file functionObjects/fieldSelections/fieldSelection/fieldSelection.C at line 166
    Field ReThetat not found
--> FOAM Warning : 
    From virtual bool Foam::functionObjects::fieldSelection::checkSelection()
    in file functionObjects/fieldSelections/fieldSelection/fieldSelection.C at line 166
    Field epsilon not found
--> FOAM Warning : 
    From virtual bool Foam::functionObjects::solverFieldSelection::updateSelection()
    in file functionObjects/fieldSelections/solverFieldSelection/solverFieldSelection.C at line 85
    Valid solver fields are: 3(U nuTilda p)Time = 2

velocityDampingConstraint velocityDamping damped 0 (0%) of cells, with max limit 300
[INFO] MatrixAssemblyU: 3359.452 [ms]
smoothSolver:  Solving for Ux, Initial residual = 0.213080832181759, Final residual = 0.01839840065023093, No Iterations 13
smoothSolver:  Solving for Uy, Initial residual = 0.3543347404772833, Final residual = 0.03300138798515201, No Iterations 13
smoothSolver:  Solving for Uz, Initial residual = 0.3287643429974331, Final residual = 0.02812584417210967, No Iterations 13
[INFO] MomentumPredictor: 3265.084 [ms]
[INFO] MatrixAssemblyPI: 665.774 [ms]
[INFO] MatrixAssemblyPII: 312.032 [ms]
DICPCG:  Solving for p, Initial residual = 0.2097858992659647, Final residual = 0.002068102246357834, No Iterations 341
[INFO] SolveP: 29933.916 [ms]
time step continuity errors : sum local = 0.04238691460853329, global = 0.001691226031878469, cumulative = 0.001775075786423931
[INFO] postSolveP: 161.77 [ms]
smoothSolver:  Solving for nuTilda, Initial residual = 0.4059490222811759, Final residual = 0.02532623764960066, No Iterations 1
[INFO] TimeStep: 39842.006 [ms]
ExecutionTime = 133.14 s  ClockTime = 134 s

Time = 3

velocityDampingConstraint velocityDamping damped 6652 (0.01%) of cells, with max limit 300
[INFO] MatrixAssemblyU: 3399.549 [ms]
smoothSolver:  Solving for Ux, Initial residual = 0.1248435919081631, Final residual = 0.01177098723944943, No Iterations 9
smoothSolver:  Solving for Uy, Initial residual = 0.2055072849957053, Final residual = 0.01964738808067605, No Iterations 10
smoothSolver:  Solving for Uz, Initial residual = 0.2191937884425934, Final residual = 0.02142040752153157, No Iterations 9
[INFO] MomentumPredictor: 2508.029 [ms]
[INFO] MatrixAssemblyPI: 667.55 [ms]
[INFO] MatrixAssemblyPII: 312.878 [ms]
DICPCG:  Solving for p, Initial residual = 0.1186800552311719, Final residual = 0.001166661386008718, No Iterations 187
[INFO] SolveP: 16454.329 [ms]
time step continuity errors : sum local = 0.0130384563868056, global = -0.001004661668176691, cumulative = 0.0007704141182472402
[INFO] postSolveP: 160.192 [ms]
smoothSolver:  Solving for nuTilda, Initial residual = 0.2091696216460436, Final residual = 0.01313210506441446, No Iterations 2
[INFO] TimeStep: 25710.629 [ms]
ExecutionTime = 161.36 s  ClockTime = 162 s

Time = 4

velocityDampingConstraint velocityDamping damped 0 (0%) of cells, with max limit 300
[INFO] MatrixAssemblyU: 3396.658 [ms]
smoothSolver:  Solving for Ux, Initial residual = 0.05382582147461904, Final residual = 0.004956144921770044, No Iterations 11
smoothSolver:  Solving for Uy, Initial residual = 0.1227480662224061, Final residual = 0.01101936704658664, No Iterations 11
smoothSolver:  Solving for Uz, Initial residual = 0.1338007712540436, Final residual = 0.0130909300668235, No Iterations 10
[INFO] MomentumPredictor: 2784.196 [ms]
[INFO] MatrixAssemblyPI: 666.072 [ms]
[INFO] MatrixAssemblyPII: 313.569 [ms]
DICPCG:  Solving for p, Initial residual = 0.1352684744020754, Final residual = 0.001338424691988128, No Iterations 108
[INFO] SolveP: 9559.508 [ms]
time step continuity errors : sum local = 0.01332457005459682, global = -0.002097932251761525, cumulative = -0.001327518133514285
[INFO] postSolveP: 158.283 [ms]
smoothSolver:  Solving for nuTilda, Initial residual = 0.1247631994656485, Final residual = 0.01050246017738789, No Iterations 2
[INFO] TimeStep: 19078.016 [ms]
ExecutionTime = 182.98 s  ClockTime = 184 s

Time = 5

velocityDampingConstraint velocityDamping damped 916 (0%) of cells, with max limit 300
[INFO] MatrixAssemblyU: 3380.381 [ms]
smoothSolver:  Solving for Ux, Initial residual = 0.04388535163812966, Final residual = 0.004193985809858677, No Iterations 10
smoothSolver:  Solving for Uy, Initial residual = 0.09792712925814431, Final residual = 0.009310090350141759, No Iterations 11
smoothSolver:  Solving for Uz, Initial residual = 0.1138448368253831, Final residual = 0.01136550952417091, No Iterations 10
[INFO] MomentumPredictor: 2713.728 [ms]
[INFO] MatrixAssemblyPI: 665.962 [ms]
[INFO] MatrixAssemblyPII: 311.687 [ms]
DICPCG:  Solving for p, Initial residual = 0.09734395206431432, Final residual = 0.0009522131644024527, No Iterations 230
[INFO] SolveP: 20214.806 [ms]
time step continuity errors : sum local = 0.00751910507920848, global = -0.0002400567362256946, cumulative = -0.001567574869739979
[INFO] postSolveP: 160.669 [ms]
smoothSolver:  Solving for nuTilda, Initial residual = 0.07088335717478955, Final residual = 0.004308703752354681, No Iterations 3
[INFO] TimeStep: 29714.498 [ms]
ExecutionTime = 215.18 s  ClockTime = 216 s

Time = 6

velocityDampingConstraint velocityDamping damped 0 (0%) of cells, with max limit 300
[INFO] MatrixAssemblyU: 3370.128 [ms]
smoothSolver:  Solving for Ux, Initial residual = 0.02993240843151026, Final residual = 0.002651717099084609, No Iterations 12
smoothSolver:  Solving for Uy, Initial residual = 0.07449572847258489, Final residual = 0.006859535487499123, No Iterations 12
smoothSolver:  Solving for Uz, Initial residual = 0.08110104430471828, Final residual = 0.006921105052330396, No Iterations 12
[INFO] MomentumPredictor: 3051.239 [ms]
[INFO] MatrixAssemblyPI: 665.227 [ms]
[INFO] MatrixAssemblyPII: 312.618 [ms]
DICPCG:  Solving for p, Initial residual = 0.09752081058118546, Final residual = 0.0009723825498801942, No Iterations 138
[INFO] SolveP: 12173.7 [ms]
time step continuity errors : sum local = 0.007062437207297083, global = 0.0006376239862495368, cumulative = -0.0009299508834904426
[INFO] postSolveP: 160.003 [ms]
smoothSolver:  Solving for nuTilda, Initial residual = 0.06433863500332702, Final residual = 0.006430711960697257, No Iterations 2
[INFO] TimeStep: 21921.605 [ms]
ExecutionTime = 239.6 s  ClockTime = 241 s

Time = 7

velocityDampingConstraint velocityDamping damped 105 (0%) of cells, with max limit 300
[INFO] MatrixAssemblyU: 3362.421 [ms]
smoothSolver:  Solving for Ux, Initial residual = 0.0271317223258002, Final residual = 0.002429498154063675, No Iterations 12
smoothSolver:  Solving for Uy, Initial residual = 0.06732471638360421, Final residual = 0.006373190310290754, No Iterations 12
smoothSolver:  Solving for Uz, Initial residual = 0.07114506105907011, Final residual = 0.006219876335542273, No Iterations 12
[INFO] MomentumPredictor: 3058.33 [ms]
[INFO] MatrixAssemblyPI: 664.47 [ms]
[INFO] MatrixAssemblyPII: 311.028 [ms]
DICPCG:  Solving for p, Initial residual = 0.08327197408345391, Final residual = 0.0008319718436998959, No Iterations 123
[INFO] SolveP: 10871.515 [ms]
time step continuity errors : sum local = 0.006067179639096975, global = 0.000846776585061488, cumulative = -8.31742984289546e-05
[INFO] postSolveP: 160.281 [ms]
smoothSolver:  Solving for nuTilda, Initial residual = 0.04947086450310226, Final residual = 0.003235603462570459, No Iterations 3
[INFO] TimeStep: 20691.029 [ms]
ExecutionTime = 262.79 s  ClockTime = 264 s

Time = 8

velocityDampingConstraint velocityDamping damped 0 (0%) of cells, with max limit 300
[INFO] MatrixAssemblyU: 3356.601 [ms]
smoothSolver:  Solving for Ux, Initial residual = 0.02308472848737627, Final residual = 0.002137991284833217, No Iterations 12
smoothSolver:  Solving for Uy, Initial residual = 0.05982750058975212, Final residual = 0.005871516268682225, No Iterations 12
smoothSolver:  Solving for Uz, Initial residual = 0.06182187288109896, Final residual = 0.00559010680781868, No Iterations 12
[INFO] MomentumPredictor: 3058.712 [ms]
[INFO] MatrixAssemblyPI: 666.04 [ms]
[INFO] MatrixAssemblyPII: 313.12 [ms]
DICPCG:  Solving for p, Initial residual = 0.07510185629328163, Final residual = 0.0007423132604719847, No Iterations 117
[INFO] SolveP: 10341.814 [ms]
time step continuity errors : sum local = 0.005521402039724661, global = 0.0009966278271703335, cumulative = 0.0009134535287413789
[INFO] postSolveP: 160.806 [ms]
smoothSolver:  Solving for nuTilda, Initial residual = 0.06587720470010244, Final residual = 0.005892729027008882, No Iterations 2
[INFO] TimeStep: 20084.693 [ms]
ExecutionTime = 285.38 s  ClockTime = 287 s

Time = 9

velocityDampingConstraint velocityDamping damped 0 (0%) of cells, with max limit 300
[INFO] MatrixAssemblyU: 3355.923 [ms]
smoothSolver:  Solving for Ux, Initial residual = 0.0203395250455952, Final residual = 0.001899375204888592, No Iterations 12
smoothSolver:  Solving for Uy, Initial residual = 0.05412090441492881, Final residual = 0.005393593063706283, No Iterations 12
smoothSolver:  Solving for Uz, Initial residual = 0.05508712505532621, Final residual = 0.005116980913664913, No Iterations 12
[INFO] MomentumPredictor: 3053.428 [ms]
[INFO] MatrixAssemblyPI: 666.8630000000001 [ms]
[INFO] MatrixAssemblyPII: 313.287 [ms]
DICPCG:  Solving for p, Initial residual = 0.06844252032745243, Final residual = 0.0006682598129129977, No Iterations 119
[INFO] SolveP: 10522.001 [ms]
time step continuity errors : sum local = 0.005046769627849277, global = 0.001185314208689764, cumulative = 0.002098767737431143
[INFO] postSolveP: 158.806 [ms]
smoothSolver:  Solving for nuTilda, Initial residual = 0.04446713898786255, Final residual = 0.003227872479898224, No Iterations 3
[INFO] TimeStep: 20328.456 [ms]
ExecutionTime = 308.21 s  ClockTime = 309 s

Time = 10

velocityDampingConstraint velocityDamping damped 0 (0%) of cells, with max limit 300
[INFO] MatrixAssemblyU: 3353.387 [ms]
smoothSolver:  Solving for Ux, Initial residual = 0.01832988507371609, Final residual = 0.001725512760549802, No Iterations 12
smoothSolver:  Solving for Uy, Initial residual = 0.04997867382310748, Final residual = 0.00497589161998286, No Iterations 12
smoothSolver:  Solving for Uz, Initial residual = 0.05045358373504249, Final residual = 0.004755530304433348, No Iterations 12
[INFO] MomentumPredictor: 3055.852 [ms]
[INFO] MatrixAssemblyPI: 665.194 [ms]
[INFO] MatrixAssemblyPII: 312.073 [ms]
DICPCG:  Solving for p, Initial residual = 0.06206718662945035, Final residual = 0.0006179326998405094, No Iterations 229
[INFO] SolveP: 20121.22 [ms]
time step continuity errors : sum local = 0.004667564280424755, global = 0.0001025491537508169, cumulative = 0.002201316891181959
[INFO] postSolveP: 160.523 [ms]
smoothSolver:  Solving for nuTilda, Initial residual = 0.07001444073598906, Final residual = 0.005534928287779032, No Iterations 2
[INFO] TimeStep: 29857.524 [ms]
ExecutionTime = 340.51 s  ClockTime = 342 s

Time = 11

velocityDampingConstraint velocityDamping damped 0 (0%) of cells, with max limit 300
[INFO] MatrixAssemblyU: 3351.813 [ms]
smoothSolver:  Solving for Ux, Initial residual = 0.01672671520495293, Final residual = 0.001600012622953651, No Iterations 12
smoothSolver:  Solving for Uy, Initial residual = 0.0475355640002102, Final residual = 0.004700958385673198, No Iterations 12
smoothSolver:  Solving for Uz, Initial residual = 0.04759093853876098, Final residual = 0.004520597446802332, No Iterations 12
[INFO] MomentumPredictor: 3067.471 [ms]
[INFO] MatrixAssemblyPI: 666.079 [ms]
[INFO] MatrixAssemblyPII: 310.243 [ms]
DICPCG:  Solving for p, Initial residual = 0.05448759085595403, Final residual = 0.0005422072926399538, No Iterations 107
[INFO] SolveP: 9459.811 [ms]
time step continuity errors : sum local = 0.00434891909746563, global = -0.0005570045212171027, cumulative = 0.001644312369964857
[INFO] postSolveP: 160.686 [ms]
smoothSolver:  Solving for nuTilda, Initial residual = 0.03935141952175991, Final residual = 0.00305429386356279, No Iterations 3
[INFO] TimeStep: 19272.714 [ms]
ExecutionTime = 362.28 s  ClockTime = 364 s

Time = 12

velocityDampingConstraint velocityDamping damped 0 (0%) of cells, with max limit 300
[INFO] MatrixAssemblyU: 3348.91 [ms]
smoothSolver:  Solving for Ux, Initial residual = 0.01551200571428116, Final residual = 0.001513010941587435, No Iterations 12
smoothSolver:  Solving for Uy, Initial residual = 0.04526101421862626, Final residual = 0.004437175569751685, No Iterations 12
smoothSolver:  Solving for Uz, Initial residual = 0.04479242342881107, Final residual = 0.004272239272415112, No Iterations 12
[INFO] MomentumPredictor: 3050.877 [ms]
[INFO] MatrixAssemblyPI: 665.383 [ms]
[INFO] MatrixAssemblyPII: 311.634 [ms]
DICPCG:  Solving for p, Initial residual = 0.05157207629636691, Final residual = 0.0005124311258201437, No Iterations 114
[INFO] SolveP: 10071.815 [ms]
time step continuity errors : sum local = 0.004057286700467828, global = -0.0007561562104229609, cumulative = 0.0008881561595418958
[INFO] postSolveP: 159.575 [ms]
smoothSolver:  Solving for nuTilda, Initial residual = 0.06587513334651927, Final residual = 0.005138086544973019, No Iterations 2
[INFO] TimeStep: 19796.964 [ms]
ExecutionTime = 384.58 s  ClockTime = 386 s

Time = 13

velocityDampingConstraint velocityDamping damped 0 (0%) of cells, with max limit 300
[INFO] MatrixAssemblyU: 3348.246 [ms]
smoothSolver:  Solving for Ux, Initial residual = 0.0144958071117378, Final residual = 0.001440997183093703, No Iterations 12
smoothSolver:  Solving for Uy, Initial residual = 0.04334397210781563, Final residual = 0.004237097287633563, No Iterations 12
smoothSolver:  Solving for Uz, Initial residual = 0.04297464570042077, Final residual = 0.004124640790010633, No Iterations 12
[INFO] MomentumPredictor: 3055.087 [ms]
[INFO] MatrixAssemblyPI: 665.991 [ms]
[INFO] MatrixAssemblyPII: 311.249 [ms]
DICPCG:  Solving for p, Initial residual = 0.04904892845218664, Final residual = 0.0004875158218049364, No Iterations 121
[INFO] SolveP: 10702.895 [ms]
time step continuity errors : sum local = 0.003835906408781248, global = -0.0008173699022028831, cumulative = 7.078625733901271e-05
[INFO] postSolveP: 160.242 [ms]
smoothSolver:  Solving for nuTilda, Initial residual = 0.03476440356857609, Final residual = 0.002852825452287127, No Iterations 3
[INFO] TimeStep: 20500.891 [ms]
ExecutionTime = 407.56 s  ClockTime = 409 s

Time = 14

velocityDampingConstraint velocityDamping damped 0 (0%) of cells, with max limit 300
[INFO] MatrixAssemblyU: 3347.783 [ms]
smoothSolver:  Solving for Ux, Initial residual = 0.01368337556007532, Final residual = 0.001171924537921366, No Iterations 13
smoothSolver:  Solving for Uy, Initial residual = 0.04154289914104389, Final residual = 0.00407497202051009, No Iterations 12
smoothSolver:  Solving for Uz, Initial residual = 0.04199467781797542, Final residual = 0.004050616461721111, No Iterations 12
[INFO] MomentumPredictor: 3113.649 [ms]
[INFO] MatrixAssemblyPI: 667.201 [ms]
[INFO] MatrixAssemblyPII: 314.726 [ms]
DICPCG:  Solving for p, Initial residual = 0.04697783255095503, Final residual = 0.0004651979592422712, No Iterations 101
[INFO] SolveP: 8943.174999999999 [ms]
time step continuity errors : sum local = 0.003647832221705642, global = -0.0008173645183623124, cumulative = -0.0007465782610232997
[INFO] postSolveP: 159.291 [ms]
smoothSolver:  Solving for nuTilda, Initial residual = 0.05854279547465956, Final residual = 0.004826584376374197, No Iterations 2
[INFO] TimeStep: 18728.745 [ms]
ExecutionTime = 428.79 s  ClockTime = 431 s

Time = 15

velocityDampingConstraint velocityDamping damped 0 (0%) of cells, with max limit 300
[INFO] MatrixAssemblyU: 3349.765 [ms]
smoothSolver:  Solving for Ux, Initial residual = 0.01282563471306681, Final residual = 0.001109289293604833, No Iterations 13
smoothSolver:  Solving for Uy, Initial residual = 0.04014969744748861, Final residual = 0.003967374159763945, No Iterations 12
smoothSolver:  Solving for Uz, Initial residual = 0.04171703381933377, Final residual = 0.004055725484021185, No Iterations 12
[INFO] MomentumPredictor: 3126.314 [ms]
[INFO] MatrixAssemblyPI: 665.341 [ms]
[INFO] MatrixAssemblyPII: 312.63 [ms]
DICPCG:  Solving for p, Initial residual = 0.04564401873915161, Final residual = 0.0004496067732523986, No Iterations 113
[INFO] SolveP: 9997.094999999999 [ms]
time step continuity errors : sum local = 0.003521433255571497, global = -0.0007255208064926032, cumulative = -0.001472099067515903
[INFO] postSolveP: 160.567 [ms]
smoothSolver:  Solving for nuTilda, Initial residual = 0.03117771770536385, Final residual = 0.002681651363302976, No Iterations 3
[INFO] TimeStep: 19859.351 [ms]
ExecutionTime = 451.14 s  ClockTime = 453 s

Time = 16

velocityDampingConstraint velocityDamping damped 0 (0%) of cells, with max limit 300
[INFO] MatrixAssemblyU: 3345.841 [ms]
smoothSolver:  Solving for Ux, Initial residual = 0.01220647888830768, Final residual = 0.001055338825713631, No Iterations 13
smoothSolver:  Solving for Uy, Initial residual = 0.03925659042437119, Final residual = 0.003897082874356794, No Iterations 12
smoothSolver:  Solving for Uz, Initial residual = 0.04159172283400347, Final residual = 0.004049552209489374, No Iterations 12
[INFO] MomentumPredictor: 3121.479 [ms]
[INFO] MatrixAssemblyPI: 665.501 [ms]
[INFO] MatrixAssemblyPII: 312.831 [ms]
DICPCG:  Solving for p, Initial residual = 0.04449865685932798, Final residual = 0.0004427058787556375, No Iterations 95
[INFO] SolveP: 8418.24 [ms]
time step continuity errors : sum local = 0.003465413726204706, global = -0.0005437016233546206, cumulative = -0.002015800690870523
[INFO] postSolveP: 159.402 [ms]
smoothSolver:  Solving for nuTilda, Initial residual = 0.05195789257977432, Final residual = 0.004572014978553658, No Iterations 2
[INFO] TimeStep: 18208.261 [ms]
ExecutionTime = 471.85 s  ClockTime = 474 s

Time = 17

velocityDampingConstraint velocityDamping damped 0 (0%) of cells, with max limit 300
[INFO] MatrixAssemblyU: 3344.171 [ms]
smoothSolver:  Solving for Ux, Initial residual = 0.01158988819455321, Final residual = 0.00100746252403826, No Iterations 13
smoothSolver:  Solving for Uy, Initial residual = 0.03875503901657486, Final residual = 0.00387319146618433, No Iterations 12
smoothSolver:  Solving for Uz, Initial residual = 0.04160673444158151, Final residual = 0.004065371216381159, No Iterations 12
[INFO] MomentumPredictor: 3124.758 [ms]
[INFO] MatrixAssemblyPI: 666.7329999999999 [ms]
[INFO] MatrixAssemblyPII: 314.683 [ms]
DICPCG:  Solving for p, Initial residual = 0.04419137111993652, Final residual = 0.0004381933459085936, No Iterations 101
[INFO] SolveP: 8944.960999999999 [ms]
time step continuity errors : sum local = 0.003438765806419005, global = -0.0003099828856398242, cumulative = -0.002325783576510348
[INFO] postSolveP: 159.318 [ms]
smoothSolver:  Solving for nuTilda, Initial residual = 0.02854959313734042, Final residual = 0.002530327543136048, No Iterations 3
[INFO] TimeStep: 18800.61 [ms]
ExecutionTime = 493.15 s  ClockTime = 495 s

Time = 18

velocityDampingConstraint velocityDamping damped 0 (0%) of cells, with max limit 300
[INFO] MatrixAssemblyU: 3345.399 [ms]
smoothSolver:  Solving for Ux, Initial residual = 0.01125248048226326, Final residual = 0.0009679201432982415, No Iterations 13
smoothSolver:  Solving for Uy, Initial residual = 0.03864136343821276, Final residual = 0.003303684869384581, No Iterations 13
smoothSolver:  Solving for Uz, Initial residual = 0.04180130141721897, Final residual = 0.004065306779774262, No Iterations 12
[INFO] MomentumPredictor: 3187.471 [ms]
[INFO] MatrixAssemblyPI: 665.651 [ms]
[INFO] MatrixAssemblyPII: 310.825 [ms]
DICPCG:  Solving for p, Initial residual = 0.04417338053939016, Final residual = 0.0004367897632538651, No Iterations 105
[INFO] SolveP: 9297.404 [ms]
time step continuity errors : sum local = 0.003443453823447056, global = -2.772136994460271e-05, cumulative = -0.002353504946454951
[INFO] postSolveP: 159.636 [ms]
smoothSolver:  Solving for nuTilda, Initial residual = 0.04660259399983135, Final residual = 0.004317398191834096, No Iterations 2
[INFO] TimeStep: 19150.955 [ms]
ExecutionTime = 514.79 s  ClockTime = 517 s

Time = 19

velocityDampingConstraint velocityDamping damped 0 (0%) of cells, with max limit 300
[INFO] MatrixAssemblyU: 3339.668 [ms]
smoothSolver:  Solving for Ux, Initial residual = 0.0109065313724801, Final residual = 0.0009380078496655964, No Iterations 13
smoothSolver:  Solving for Uy, Initial residual = 0.03890610264661716, Final residual = 0.003322616704881216, No Iterations 13
smoothSolver:  Solving for Uz, Initial residual = 0.04256735922922283, Final residual = 0.004112433721674519, No Iterations 12
[INFO] MomentumPredictor: 3194.443 [ms]
[INFO] MatrixAssemblyPI: 666.289 [ms]
[INFO] MatrixAssemblyPII: 312.259 [ms]
DICPCG:  Solving for p, Initial residual = 0.04442237090494018, Final residual = 0.0004441734514649742, No Iterations 113
[INFO] SolveP: 9995.571 [ms]
time step continuity errors : sum local = 0.003520600815973445, global = 0.0002698376842888745, cumulative = -0.002083667262166076
[INFO] postSolveP: 160.379 [ms]
smoothSolver:  Solving for nuTilda, Initial residual = 0.02655904432247392, Final residual = 0.002378937878421839, No Iterations 3
[INFO] TimeStep: 19919.831 [ms]
ExecutionTime = 537.2 s  ClockTime = 540 s

Time = 20

velocityDampingConstraint velocityDamping damped 0 (0%) of cells, with max limit 300
[INFO] MatrixAssemblyU: 3342.057 [ms]
smoothSolver:  Solving for Ux, Initial residual = 0.0107341401462561, Final residual = 0.0009186156007623434, No Iterations 13
smoothSolver:  Solving for Uy, Initial residual = 0.03928476259511152, Final residual = 0.003921529386202987, No Iterations 12
smoothSolver:  Solving for Uz, Initial residual = 0.04316699499520312, Final residual = 0.004142714865998382, No Iterations 12
[INFO] MomentumPredictor: 3122.939 [ms]
[INFO] MatrixAssemblyPI: 667.258 [ms]
[INFO] MatrixAssemblyPII: 313.44 [ms]
DICPCG:  Solving for p, Initial residual = 0.04433306740031874, Final residual = 0.0004397876283518465, No Iterations 120
[INFO] SolveP: 10602.134 [ms]
time step continuity errors : sum local = 0.003520385431913613, global = 0.0005431653565705557, cumulative = -0.001540501905595521
[INFO] postSolveP: 160.281 [ms]
smoothSolver:  Solving for nuTilda, Initial residual = 0.04204537136280671, Final residual = 0.00406050045202698, No Iterations 2
[INFO] TimeStep: 20386.102 [ms]
ExecutionTime = 560.0700000000001 s  ClockTime = 563 s

Time = 21

velocityDampingConstraint velocityDamping damped 0 (0%) of cells, with max limit 300
[INFO] MatrixAssemblyU: 3342.41 [ms]
smoothSolver:  Solving for Ux, Initial residual = 0.01052909268235838, Final residual = 0.0009044374131936258, No Iterations 13
smoothSolver:  Solving for Uy, Initial residual = 0.03990888686585993, Final residual = 0.003967320463295831, No Iterations 12
smoothSolver:  Solving for Uz, Initial residual = 0.04349571280822901, Final residual = 0.004137857779865729, No Iterations 12
[INFO] MomentumPredictor: 3120.748 [ms]
[INFO] MatrixAssemblyPI: 667.8339999999999 [ms]
[INFO] MatrixAssemblyPII: 314.628 [ms]
DICPCG:  Solving for p, Initial residual = 0.04434146511994427, Final residual = 0.0004424733231167815, No Iterations 129
[INFO] SolveP: 11394.165 [ms]
time step continuity errors : sum local = 0.003588904547058965, global = 0.0007531648842952549, cumulative = -0.0007873370213002656
[INFO] postSolveP: 159.23 [ms]
smoothSolver:  Solving for nuTilda, Initial residual = 0.02487791181561417, Final residual = 0.002230930928805698, No Iterations 3
[INFO] TimeStep: 21239.268 [ms]
ExecutionTime = 583.78 s  ClockTime = 586 s

Time = 22

velocityDampingConstraint velocityDamping damped 0 (0%) of cells, with max limit 300
[INFO] MatrixAssemblyU: 3343.304 [ms]
smoothSolver:  Solving for Ux, Initial residual = 0.0104924367774492, Final residual = 0.001047791439609355, No Iterations 12
smoothSolver:  Solving for Uy, Initial residual = 0.04053153644959424, Final residual = 0.00398906371776694, No Iterations 12
smoothSolver:  Solving for Uz, Initial residual = 0.04339299650361451, Final residual = 0.00409660460849042, No Iterations 12
[INFO] MomentumPredictor: 3049.987 [ms]
[INFO] MatrixAssemblyPI: 665.0940000000001 [ms]
[INFO] MatrixAssemblyPII: 312.206 [ms]
DICPCG:  Solving for p, Initial residual = 0.04403025637883859, Final residual = 0.0004303184901733831, No Iterations 236
[INFO] SolveP: 20752.264 [ms]
time step continuity errors : sum local = 0.003544298793294866, global = 1.523611029105842e-05, cumulative = -0.0007721009110092073
[INFO] postSolveP: 159.853 [ms]
smoothSolver:  Solving for nuTilda, Initial residual = 0.03814437756463993, Final residual = 0.003812816426857813, No Iterations 2
[INFO] TimeStep: 30466.743 [ms]
ExecutionTime = 616.6900000000001 s  ClockTime = 620 s

Time = 23

velocityDampingConstraint velocityDamping damped 0 (0%) of cells, with max limit 300
[INFO] MatrixAssemblyU: 3340.804 [ms]
smoothSolver:  Solving for Ux, Initial residual = 0.0103986585856028, Final residual = 0.001038967050733298, No Iterations 12
smoothSolver:  Solving for Uy, Initial residual = 0.04132418176115243, Final residual = 0.00399350476627647, No Iterations 12
smoothSolver:  Solving for Uz, Initial residual = 0.04315890145333514, Final residual = 0.004018065785621693, No Iterations 12
[INFO] MomentumPredictor: 3055.376 [ms]
[INFO] MatrixAssemblyPI: 668.022 [ms]
[INFO] MatrixAssemblyPII: 308.453 [ms]
DICPCG:  Solving for p, Initial residual = 0.04243173676750196, Final residual = 0.0004062972272038075, No Iterations 114
[INFO] SolveP: 10083.797 [ms]
time step continuity errors : sum local = 0.003507187011163495, global = -0.000106032923172174, cumulative = -0.0008781338341813812
[INFO] postSolveP: 160.398 [ms]
smoothSolver:  Solving for nuTilda, Initial residual = 0.0231500498149162, Final residual = 0.00209495014399854, No Iterations 3
[INFO] TimeStep: 19870.092 [ms]
ExecutionTime = 639.04 s  ClockTime = 642 s

Time = 24

velocityDampingConstraint velocityDamping damped 0 (0%) of cells, with max limit 300
[INFO] MatrixAssemblyU: 3340.748 [ms]
smoothSolver:  Solving for Ux, Initial residual = 0.01038413004333322, Final residual = 0.001034353059958685, No Iterations 12
smoothSolver:  Solving for Uy, Initial residual = 0.04179835142874062, Final residual = 0.004024636947952956, No Iterations 12
smoothSolver:  Solving for Uz, Initial residual = 0.04250528522883083, Final residual = 0.003930964082031299, No Iterations 12
[INFO] MomentumPredictor: 3054.645 [ms]
[INFO] MatrixAssemblyPI: 666.061 [ms]
[INFO] MatrixAssemblyPII: 312.852 [ms]
DICPCG:  Solving for p, Initial residual = 0.04256655687351506, Final residual = 0.0004223338806313484, No Iterations 116
[INFO] SolveP: 10262.044 [ms]
time step continuity errors : sum local = 0.00365637798852409, global = -5.969768289739352e-05, cumulative = -0.0009378315170787747
[INFO] postSolveP: 160.095 [ms]
smoothSolver:  Solving for nuTilda, Initial residual = 0.03485089912961927, Final residual = 0.001924073016678589, No Iterations 3
[INFO] TimeStep: 20045.772 [ms]
ExecutionTime = 661.5700000000001 s  ClockTime = 665 s

Time = 25

velocityDampingConstraint velocityDamping damped 0 (0%) of cells, with max limit 300
[INFO] MatrixAssemblyU: 3342.263 [ms]
smoothSolver:  Solving for Ux, Initial residual = 0.0103252934506526, Final residual = 0.0008848137806909915, No Iterations 13
smoothSolver:  Solving for Uy, Initial residual = 0.04260287124471263, Final residual = 0.004117746425205169, No Iterations 12
smoothSolver:  Solving for Uz, Initial residual = 0.04222369971023344, Final residual = 0.003897171010570909, No Iterations 12
[INFO] MomentumPredictor: 3127.633 [ms]
[INFO] MatrixAssemblyPI: 666.828 [ms]
[INFO] MatrixAssemblyPII: 313.006 [ms]
DICPCG:  Solving for p, Initial residual = 0.04217942671779764, Final residual = 0.0004207819107941123, No Iterations 121
[INFO] SolveP: 10696.93 [ms]
time step continuity errors : sum local = 0.003679888884181892, global = -2.420306060821833e-05, cumulative = -0.000962034577686993
[INFO] postSolveP: 160.587 [ms]
smoothSolver:  Solving for nuTilda, Initial residual = 0.0214824336814564, Final residual = 0.001974986906000881, No Iterations 3
[INFO] TimeStep: 20552.587 [ms]
ExecutionTime = 684.6 s  ClockTime = 688 s

Time = 26

velocityDampingConstraint velocityDamping damped 0 (0%) of cells, with max limit 300
[INFO] MatrixAssemblyU: 3339.523 [ms]
smoothSolver:  Solving for Ux, Initial residual = 0.01039861344035426, Final residual = 0.00103743707472622, No Iterations 12
smoothSolver:  Solving for Uy, Initial residual = 0.04357466065351718, Final residual = 0.004273202804482887, No Iterations 12
smoothSolver:  Solving for Uz, Initial residual = 0.04226641077767374, Final residual = 0.003941489078680962, No Iterations 12
[INFO] MomentumPredictor: 3052.102 [ms]
[INFO] MatrixAssemblyPI: 666.229 [ms]
[INFO] MatrixAssemblyPII: 313.75 [ms]
DICPCG:  Solving for p, Initial residual = 0.0418622615782472, Final residual = 0.0004131588543407477, No Iterations 116
[INFO] SolveP: 10259.662 [ms]
time step continuity errors : sum local = 0.003654590505591694, global = 5.084757767654571e-05, cumulative = -0.0009111870000104473
[INFO] postSolveP: 160.717 [ms]
smoothSolver:  Solving for nuTilda, Initial residual = 0.03186498475020397, Final residual = 0.001817914553603028, No Iterations 3
[INFO] TimeStep: 20036.046 [ms]
ExecutionTime = 707.11 s  ClockTime = 710 s

Time = 27

velocityDampingConstraint velocityDamping damped 0 (0%) of cells, with max limit 300
[INFO] MatrixAssemblyU: 3341.213 [ms]
smoothSolver:  Solving for Ux, Initial residual = 0.01040912834058486, Final residual = 0.001038931312429331, No Iterations 12
smoothSolver:  Solving for Uy, Initial residual = 0.0446203435980714, Final residual = 0.004441020383977571, No Iterations 12
smoothSolver:  Solving for Uz, Initial residual = 0.04257129134414685, Final residual = 0.00402006957777899, No Iterations 12
[INFO] MomentumPredictor: 3050.691 [ms]
[INFO] MatrixAssemblyPI: 666.758 [ms]
[INFO] MatrixAssemblyPII: 311.412 [ms]
DICPCG:  Solving for p, Initial residual = 0.04224002660655214, Final residual = 0.0004214973061929828, No Iterations 113
[INFO] SolveP: 9993.134 [ms]
time step continuity errors : sum local = 0.003766344772791699, global = 0.0002133612755487667, cumulative = -0.0006978257244616805
[INFO] postSolveP: 161.062 [ms]
smoothSolver:  Solving for nuTilda, Initial residual = 0.01986551671948756, Final residual = 0.001849484737498825, No Iterations 3
[INFO] TimeStep: 19773.851 [ms]
ExecutionTime = 729.36 s  ClockTime = 733 s

Time = 28

velocityDampingConstraint velocityDamping damped 0 (0%) of cells, with max limit 300
[INFO] MatrixAssemblyU: 3339.438 [ms]
smoothSolver:  Solving for Ux, Initial residual = 0.01055488705311362, Final residual = 0.00104227398048328, No Iterations 12
smoothSolver:  Solving for Uy, Initial residual = 0.04597639114687867, Final residual = 0.003941857983419089, No Iterations 13
smoothSolver:  Solving for Uz, Initial residual = 0.04356979342842263, Final residual = 0.004133085920220281, No Iterations 12
[INFO] MomentumPredictor: 3114.346 [ms]
[INFO] MatrixAssemblyPI: 667.626 [ms]
[INFO] MatrixAssemblyPII: 314.3 [ms]
DICPCG:  Solving for p, Initial residual = 0.0432300584508788, Final residual = 0.0004299185271791705, No Iterations 106
[INFO] SolveP: 9391.834000000001 [ms]
time step continuity errors : sum local = 0.003884998239102682, global = 0.0004099954124140841, cumulative = -0.0002878303120475965
[INFO] postSolveP: 160.726 [ms]
smoothSolver:  Solving for nuTilda, Initial residual = 0.02928620142132111, Final residual = 0.001711667863456129, No Iterations 3
[INFO] TimeStep: 19236.106 [ms]
ExecutionTime = 751.08 s  ClockTime = 755 s

Time = 29

velocityDampingConstraint velocityDamping damped 0 (0%) of cells, with max limit 300
[INFO] MatrixAssemblyU: 3337.688 [ms]
smoothSolver:  Solving for Ux, Initial residual = 0.01059152027483647, Final residual = 0.001043765482478228, No Iterations 12
smoothSolver:  Solving for Uy, Initial residual = 0.04753040575905549, Final residual = 0.00407977267720337, No Iterations 13
smoothSolver:  Solving for Uz, Initial residual = 0.04499664353465998, Final residual = 0.004276802343409115, No Iterations 12
[INFO] MomentumPredictor: 3117.861 [ms]
[INFO] MatrixAssemblyPI: 665.859 [ms]
[INFO] MatrixAssemblyPII: 312.005 [ms]
DICPCG:  Solving for p, Initial residual = 0.04417844713623407, Final residual = 0.0004321805647810406, No Iterations 107
[INFO] SolveP: 9463.43 [ms]
time step continuity errors : sum local = 0.003950956116137396, global = 0.0006101215048825594, cumulative = 0.0003222911928349629
[INFO] postSolveP: 159.456 [ms]
smoothSolver:  Solving for nuTilda, Initial residual = 0.01843110619241674, Final residual = 0.001725270798265183, No Iterations 3
[INFO] TimeStep: 19305.495 [ms]
ExecutionTime = 772.88 s  ClockTime = 776 s

Time = 30

velocityDampingConstraint velocityDamping damped 0 (0%) of cells, with max limit 300
[INFO] MatrixAssemblyU: 3338.354 [ms]
smoothSolver:  Solving for Ux, Initial residual = 0.01078970872920976, Final residual = 0.001049402392800262, No Iterations 12
smoothSolver:  Solving for Uy, Initial residual = 0.04961365168018436, Final residual = 0.004229278376057862, No Iterations 13
smoothSolver:  Solving for Uz, Initial residual = 0.04660372606037865, Final residual = 0.004413559702287108, No Iterations 12
[INFO] MomentumPredictor: 3129.909 [ms]
[INFO] MatrixAssemblyPI: 665.6609999999999 [ms]
[INFO] MatrixAssemblyPII: 311.319 [ms]
DICPCG:  Solving for p, Initial residual = 0.04506305474182853, Final residual = 0.000445356078997046, No Iterations 97
[INFO] SolveP: 8598.259 [ms]
time step continuity errors : sum local = 0.004128388595794895, global = 0.0008028898855211196, cumulative = 0.001125181078356083
[INFO] postSolveP: 160.939 [ms]
smoothSolver:  Solving for nuTilda, Initial residual = 0.02705477129367462, Final residual = 0.001604067768655693, No Iterations 3
[INFO] TimeStep: 18452.41 [ms]
ExecutionTime = 793.8099999999999 s  ClockTime = 798 s

Time = 31

velocityDampingConstraint velocityDamping damped 0 (0%) of cells, with max limit 300
[INFO] MatrixAssemblyU: 3337 [ms]
smoothSolver:  Solving for Ux, Initial residual = 0.01085252753643505, Final residual = 0.00105526733792502, No Iterations 12
smoothSolver:  Solving for Uy, Initial residual = 0.05191106612605123, Final residual = 0.00516960747941786, No Iterations 12
smoothSolver:  Solving for Uz, Initial residual = 0.04828518813903381, Final residual = 0.004569626460003015, No Iterations 12
[INFO] MomentumPredictor: 3049.572 [ms]
[INFO] MatrixAssemblyPI: 665.728 [ms]
[INFO] MatrixAssemblyPII: 310.196 [ms]
DICPCG:  Solving for p, Initial residual = 0.04630670406477063, Final residual = 0.0004548390412910767, No Iterations 100
[INFO] SolveP: 8861.895 [ms]
time step continuity errors : sum local = 0.004269234201925274, global = 0.0009322215175529436, cumulative = 0.002057402595909026
[INFO] postSolveP: 160.006 [ms]
smoothSolver:  Solving for nuTilda, Initial residual = 0.01713664656977652, Final residual = 0.001605511704922835, No Iterations 3
[INFO] TimeStep: 18633.535 [ms]
ExecutionTime = 814.9299999999999 s  ClockTime = 819 s

Time = 32

velocityDampingConstraint velocityDamping damped 0 (0%) of cells, with max limit 300
[INFO] MatrixAssemblyU: 3334.414 [ms]
smoothSolver:  Solving for Ux, Initial residual = 0.01096971555250235, Final residual = 0.00106185943485356, No Iterations 12
smoothSolver:  Solving for Uy, Initial residual = 0.05432420504843638, Final residual = 0.005407433031816321, No Iterations 12
smoothSolver:  Solving for Uz, Initial residual = 0.04985819439046417, Final residual = 0.004773336809342209, No Iterations 12
[INFO] MomentumPredictor: 3055.837 [ms]
[INFO] MatrixAssemblyPI: 665.639 [ms]
[INFO] MatrixAssemblyPII: 312.57 [ms]
DICPCG:  Solving for p, Initial residual = 0.04782325101953815, Final residual = 0.000470397269801664, No Iterations 100
[INFO] SolveP: 8858.057000000001 [ms]
time step continuity errors : sum local = 0.004471047464272351, global = 0.0009843433133282836, cumulative = 0.00304174590923731
[INFO] postSolveP: 160.83 [ms]
smoothSolver:  Solving for nuTilda, Initial residual = 0.02512989171195055, Final residual = 0.001500877690033007, No Iterations 3
[INFO] TimeStep: 18630.65 [ms]
ExecutionTime = 836.04 s  ClockTime = 840 s

Time = 33

velocityDampingConstraint velocityDamping damped 0 (0%) of cells, with max limit 300
[INFO] MatrixAssemblyU: 3334.313 [ms]
smoothSolver:  Solving for Ux, Initial residual = 0.01091635671661283, Final residual = 0.001067878275526937, No Iterations 12
smoothSolver:  Solving for Uy, Initial residual = 0.05660793876768951, Final residual = 0.005626348861627257, No Iterations 12
smoothSolver:  Solving for Uz, Initial residual = 0.05198809238974006, Final residual = 0.005041159083642789, No Iterations 12
[INFO] MomentumPredictor: 3048.656 [ms]
[INFO] MatrixAssemblyPI: 665.272 [ms]
[INFO] MatrixAssemblyPII: 315.145 [ms]
DICPCG:  Solving for p, Initial residual = 0.04963323293068834, Final residual = 0.0004829071784215067, No Iterations 99
[INFO] SolveP: 8772.245000000001 [ms]
time step continuity errors : sum local = 0.004644767350473913, global = 0.0009742943212831019, cumulative = 0.004016040230520412
[INFO] postSolveP: 159.029 [ms]
smoothSolver:  Solving for nuTilda, Initial residual = 0.01603156371061444, Final residual = 0.001494534996139414, No Iterations 3
[INFO] TimeStep: 18535.887 [ms]
ExecutionTime = 857.0599999999999 s  ClockTime = 861 s

Time = 34

velocityDampingConstraint velocityDamping damped 0 (0%) of cells, with max limit 300
[INFO] MatrixAssemblyU: 3336.521 [ms]
smoothSolver:  Solving for Ux, Initial residual = 0.0110314011209609, Final residual = 0.001077808984012114, No Iterations 12
smoothSolver:  Solving for Uy, Initial residual = 0.05908871825303771, Final residual = 0.005874645419522157, No Iterations 12
smoothSolver:  Solving for Uz, Initial residual = 0.05449319062303092, Final residual = 0.005333855591643248, No Iterations 12
[INFO] MomentumPredictor: 3044.697 [ms]
[INFO] MatrixAssemblyPI: 664.4690000000001 [ms]
[INFO] MatrixAssemblyPII: 310.415 [ms]
DICPCG:  Solving for p, Initial residual = 0.05179587676563635, Final residual = 0.0005103662081588029, No Iterations 95
[INFO] SolveP: 8428.254000000001 [ms]
time step continuity errors : sum local = 0.00496479592075451, global = 0.0009051438983724461, cumulative = 0.004921184128892859
[INFO] postSolveP: 159.92 [ms]
smoothSolver:  Solving for nuTilda, Initial residual = 0.02347179182005377, Final residual = 0.001405363360331346, No Iterations 3
[INFO] TimeStep: 18195.856 [ms]
ExecutionTime = 877.74 s  ClockTime = 882 s

Time = 35

velocityDampingConstraint velocityDamping damped 0 (0%) of cells, with max limit 300
[INFO] MatrixAssemblyU: 3330.147 [ms]
smoothSolver:  Solving for Ux, Initial residual = 0.01108789841799413, Final residual = 0.001090704734801278, No Iterations 12
smoothSolver:  Solving for Uy, Initial residual = 0.06163327064356441, Final residual = 0.005244164709598165, No Iterations 13
smoothSolver:  Solving for Uz, Initial residual = 0.05701738707272598, Final residual = 0.005603555715138951, No Iterations 12
[INFO] MomentumPredictor: 3124.254 [ms]
[INFO] MatrixAssemblyPI: 664.612 [ms]
[INFO] MatrixAssemblyPII: 308.897 [ms]
DICPCG:  Solving for p, Initial residual = 0.05363266297645496, Final residual = 0.0005280647858584675, No Iterations 94
[INFO] SolveP: 8336.522000000001 [ms]
time step continuity errors : sum local = 0.005194805602748052, global = 0.0007822109088131846, cumulative = 0.005703395037706043
[INFO] postSolveP: 160.772 [ms]
smoothSolver:  Solving for nuTilda, Initial residual = 0.01510428055095332, Final residual = 0.001395006498619016, No Iterations 3
[INFO] TimeStep: 18175.945 [ms]
ExecutionTime = 898.4 s  ClockTime = 903 s

Time = 36

velocityDampingConstraint velocityDamping damped 0 (0%) of cells, with max limit 300
[INFO] MatrixAssemblyU: 3330.665 [ms]
smoothSolver:  Solving for Ux, Initial residual = 0.01136267804464151, Final residual = 0.001112875199920768, No Iterations 12
smoothSolver:  Solving for Uy, Initial residual = 0.06365191603154431, Final residual = 0.005501494055721837, No Iterations 13
smoothSolver:  Solving for Uz, Initial residual = 0.05966608836813996, Final residual = 0.005866057493593805, No Iterations 12
[INFO] MomentumPredictor: 3125.179 [ms]
[INFO] MatrixAssemblyPI: 665.067 [ms]
[INFO] MatrixAssemblyPII: 309.531 [ms]
DICPCG:  Solving for p, Initial residual = 0.05499667847622998, Final residual = 0.0005400342563220529, No Iterations 93
[INFO] SolveP: 8244.927 [ms]
time step continuity errors : sum local = 0.005360111972174519, global = 0.0006074746392850582, cumulative = 0.006310869676991101
[INFO] postSolveP: 159.746 [ms]
smoothSolver:  Solving for nuTilda, Initial residual = 0.02202059394709286, Final residual = 0.00131797657953869, No Iterations 3
[INFO] TimeStep: 18084.527 [ms]
ExecutionTime = 918.96 s  ClockTime = 923 s

Time = 37

velocityDampingConstraint velocityDamping damped 0 (0%) of cells, with max limit 300
[INFO] MatrixAssemblyU: 3328.955 [ms]
smoothSolver:  Solving for Ux, Initial residual = 0.0115781952776999, Final residual = 0.001138683498036052, No Iterations 12
smoothSolver:  Solving for Uy, Initial residual = 0.06549051440273476, Final residual = 0.005742464982815916, No Iterations 13
smoothSolver:  Solving for Uz, Initial residual = 0.06226814636042578, Final residual = 0.006085090019332415, No Iterations 12
[INFO] MomentumPredictor: 3125.915 [ms]
[INFO] MatrixAssemblyPI: 665.504 [ms]
[INFO] MatrixAssemblyPII: 311.285 [ms]
DICPCG:  Solving for p, Initial residual = 0.05678240635999781, Final residual = 0.0005646843216310335, No Iterations 89
[INFO] SolveP: 7899.243 [ms]
time step continuity errors : sum local = 0.005651117180190612, global = 0.0004132185796903064, cumulative = 0.006724088256681407
[INFO] postSolveP: 159.717 [ms]
smoothSolver:  Solving for nuTilda, Initial residual = 0.01427440442781201, Final residual = 0.001306138440327815, No Iterations 3
[INFO] TimeStep: 17733.598 [ms]
ExecutionTime = 939.1799999999999 s  ClockTime = 944 s

Time = 38

velocityDampingConstraint velocityDamping damped 0 (0%) of cells, with max limit 300
[INFO] MatrixAssemblyU: 3331.278 [ms]
smoothSolver:  Solving for Ux, Initial residual = 0.0118973665520151, Final residual = 0.001161632559663758, No Iterations 12
smoothSolver:  Solving for Uy, Initial residual = 0.06706132589727334, Final residual = 0.005924456755443728, No Iterations 13
smoothSolver:  Solving for Uz, Initial residual = 0.06501395820068503, Final residual = 0.006281647293087138, No Iterations 12
[INFO] MomentumPredictor: 3125.824 [ms]
[INFO] MatrixAssemblyPI: 665.391 [ms]
[INFO] MatrixAssemblyPII: 311.476 [ms]
DICPCG:  Solving for p, Initial residual = 0.05746626146735471, Final residual = 0.0005592499362166672, No Iterations 89
[INFO] SolveP: 7899.764 [ms]
time step continuity errors : sum local = 0.005628272970320596, global = 0.0001967960842510163, cumulative = 0.006920884340932424
[INFO] postSolveP: 160.123 [ms]
smoothSolver:  Solving for nuTilda, Initial residual = 0.02075346545517396, Final residual = 0.001240611834254593, No Iterations 3
[INFO] TimeStep: 17738.054 [ms]
ExecutionTime = 959.4 s  ClockTime = 964 s

Time = 39

velocityDampingConstraint velocityDamping damped 0 (0%) of cells, with max limit 300
[INFO] MatrixAssemblyU: 3328.768 [ms]
smoothSolver:  Solving for Ux, Initial residual = 0.01199199389262154, Final residual = 0.001174640161560804, No Iterations 12
smoothSolver:  Solving for Uy, Initial residual = 0.06857238285590624, Final residual = 0.006095985762167028, No Iterations 13
smoothSolver:  Solving for Uz, Initial residual = 0.06753016324879296, Final residual = 0.006500934351977446, No Iterations 12
[INFO] MomentumPredictor: 3126.933 [ms]
[INFO] MatrixAssemblyPI: 667.135 [ms]
[INFO] MatrixAssemblyPII: 312.134 [ms]
DICPCG:  Solving for p, Initial residual = 0.05752250002728672, Final residual = 0.0005655876754859851, No Iterations 88
[INFO] SolveP: 7815.202 [ms]
time step continuity errors : sum local = 0.005716640667364633, global = -2.981286724421883e-05, cumulative = 0.006891071473688205
[INFO] postSolveP: 160.191 [ms]
smoothSolver:  Solving for nuTilda, Initial residual = 0.01354558342322093, Final residual = 0.001230482504109559, No Iterations 3
[INFO] TimeStep: 17652.211 [ms]
ExecutionTime = 979.54 s  ClockTime = 984 s

Time = 40

velocityDampingConstraint velocityDamping damped 0 (0%) of cells, with max limit 300
[INFO] MatrixAssemblyU: 3326.864 [ms]
smoothSolver:  Solving for Ux, Initial residual = 0.01213556604699352, Final residual = 0.001185707345283613, No Iterations 12
smoothSolver:  Solving for Uy, Initial residual = 0.0697899874842144, Final residual = 0.006260141361331849, No Iterations 13
smoothSolver:  Solving for Uz, Initial residual = 0.0693707545043509, Final residual = 0.006735729622967483, No Iterations 12
[INFO] MomentumPredictor: 3112.138 [ms]
[INFO] MatrixAssemblyPI: 665.636 [ms]
[INFO] MatrixAssemblyPII: 312.998 [ms]
DICPCG:  Solving for p, Initial residual = 0.05770173000189974, Final residual = 0.0005758085431353737, No Iterations 86
[INFO] SolveP: 7636.861 [ms]
time step continuity errors : sum local = 0.005829742564753921, global = -0.0002523314023026138, cumulative = 0.006638740071385592
[INFO] postSolveP: 160.07 [ms]
smoothSolver:  Solving for nuTilda, Initial residual = 0.01963594861803784, Final residual = 0.001175481569174345, No Iterations 3
[INFO] TimeStep: 17459.152 [ms]
ExecutionTime = 999.48 s  ClockTime = 1004 s

Time = 41

velocityDampingConstraint velocityDamping damped 0 (0%) of cells, with max limit 300
[INFO] MatrixAssemblyU: 3326.074 [ms]
smoothSolver:  Solving for Ux, Initial residual = 0.01207331355563328, Final residual = 0.001195309014693148, No Iterations 12
smoothSolver:  Solving for Uy, Initial residual = 0.07049108275022753, Final residual = 0.006424165896128041, No Iterations 13
smoothSolver:  Solving for Uz, Initial residual = 0.07050226511220958, Final residual = 0.006934199888483285, No Iterations 12
[INFO] MomentumPredictor: 3119.556 [ms]
[INFO] MatrixAssemblyPI: 667.716 [ms]
[INFO] MatrixAssemblyPII: 314.143 [ms]
DICPCG:  Solving for p, Initial residual = 0.05730622038786239, Final residual = 0.0005729050226357028, No Iterations 82
[INFO] SolveP: 7290.953 [ms]
time step continuity errors : sum local = 0.005802757657552397, global = -0.0004537175920272196, cumulative = 0.006185022479358372
[INFO] postSolveP: 162.053 [ms]
smoothSolver:  Solving for nuTilda, Initial residual = 0.01293328244986757, Final residual = 0.001167262595568768, No Iterations 3
[INFO] TimeStep: 17119.913 [ms]
ExecutionTime = 1019.08 s  ClockTime = 1024 s

Time = 42

velocityDampingConstraint velocityDamping damped 0 (0%) of cells, with max limit 300
[INFO] MatrixAssemblyU: 3329.1 [ms]
smoothSolver:  Solving for Ux, Initial residual = 0.01211181318698277, Final residual = 0.001202325807954935, No Iterations 12
smoothSolver:  Solving for Uy, Initial residual = 0.07104157313017705, Final residual = 0.006613034116250903, No Iterations 13
smoothSolver:  Solving for Uz, Initial residual = 0.07107807809525062, Final residual = 0.00604036462907376, No Iterations 13
[INFO] MomentumPredictor: 3194.303 [ms]
[INFO] MatrixAssemblyPI: 665.981 [ms]
[INFO] MatrixAssemblyPII: 313.192 [ms]
DICPCG:  Solving for p, Initial residual = 0.05696985976450535, Final residual = 0.0005531780167636823, No Iterations 85
[INFO] SolveP: 7550.896 [ms]
time step continuity errors : sum local = 0.005598610231110592, global = -0.0006551288664848157, cumulative = 0.005529893612873556
[INFO] postSolveP: 159.727 [ms]
smoothSolver:  Solving for nuTilda, Initial residual = 0.01862046778146935, Final residual = 0.001119148716119256, No Iterations 3
[INFO] TimeStep: 17459.124 [ms]
ExecutionTime = 1039.01 s  ClockTime = 1044 s

Time = 43

velocityDampingConstraint velocityDamping damped 0 (0%) of cells, with max limit 300
[INFO] MatrixAssemblyU: 3327.003 [ms]
smoothSolver:  Solving for Ux, Initial residual = 0.0120174333835666, Final residual = 0.001030212689425616, No Iterations 13
smoothSolver:  Solving for Uy, Initial residual = 0.07179914996332201, Final residual = 0.006836143200567124, No Iterations 13
smoothSolver:  Solving for Uz, Initial residual = 0.07074233446885504, Final residual = 0.006124001842694362, No Iterations 13
[INFO] MomentumPredictor: 3257.122 [ms]
[INFO] MatrixAssemblyPI: 666.006 [ms]
[INFO] MatrixAssemblyPII: 312.205 [ms]
DICPCG:  Solving for p, Initial residual = 0.05630549806145376, Final residual = 0.000561413335173136, No Iterations 85
[INFO] SolveP: 7553.447 [ms]
time step continuity errors : sum local = 0.00566413596736495, global = -0.0008593751677353595, cumulative = 0.004670518445138197
[INFO] postSolveP: 160.608 [ms]
smoothSolver:  Solving for nuTilda, Initial residual = 0.01239446460385923, Final residual = 0.001109642780865808, No Iterations 3
[INFO] TimeStep: 17513.571 [ms]
ExecutionTime = 1059 s  ClockTime = 1064 s

Time = 44

velocityDampingConstraint velocityDamping damped 0 (0%) of cells, with max limit 300
[INFO] MatrixAssemblyU: 3324.679 [ms]
smoothSolver:  Solving for Ux, Initial residual = 0.01202995566156517, Final residual = 0.001038826012161862, No Iterations 13
smoothSolver:  Solving for Uy, Initial residual = 0.07227832130741257, Final residual = 0.007043158895152503, No Iterations 13
smoothSolver:  Solving for Uz, Initial residual = 0.07007665709832379, Final residual = 0.006194064611580411, No Iterations 13
[INFO] MomentumPredictor: 3258.907 [ms]
[INFO] MatrixAssemblyPI: 666.886 [ms]
[INFO] MatrixAssemblyPII: 315.369 [ms]
DICPCG:  Solving for p, Initial residual = 0.05556937523031989, Final residual = 0.0005525002248200553, No Iterations 105
[INFO] SolveP: 9287.950999999999 [ms]
time step continuity errors : sum local = 0.005531303704632279, global = -0.00104828908169713, cumulative = 0.003622229363441067
[INFO] postSolveP: 159.82 [ms]
smoothSolver:  Solving for nuTilda, Initial residual = 0.01766138170510195, Final residual = 0.001065672608579802, No Iterations 3
[INFO] TimeStep: 19252.537 [ms]
ExecutionTime = 1080.72 s  ClockTime = 1086 s

Time = 45

velocityDampingConstraint velocityDamping damped 0 (0%) of cells, with max limit 300
[INFO] MatrixAssemblyU: 3323.087 [ms]
smoothSolver:  Solving for Ux, Initial residual = 0.01189496104116173, Final residual = 0.001048203746559651, No Iterations 13
smoothSolver:  Solving for Uy, Initial residual = 0.07238816092857006, Final residual = 0.007182046804865717, No Iterations 13
smoothSolver:  Solving for Uz, Initial residual = 0.06929740442561494, Final residual = 0.006259243973399214, No Iterations 13
[INFO] MomentumPredictor: 3250.393 [ms]
[INFO] MatrixAssemblyPI: 667.4160000000001 [ms]
[INFO] MatrixAssemblyPII: 312.98 [ms]
DICPCG:  Solving for p, Initial residual = 0.05515586617129351, Final residual = 0.0005450125730944225, No Iterations 87
[INFO] SolveP: 7724.177 [ms]
time step continuity errors : sum local = 0.005383186647304698, global = -0.001212531670426837, cumulative = 0.002409697693014229
[INFO] postSolveP: 160.312 [ms]
smoothSolver:  Solving for nuTilda, Initial residual = 0.01183956753900289, Final residual = 0.00105470132162791, No Iterations 3
[INFO] TimeStep: 17677.595 [ms]
ExecutionTime = 1100.88 s  ClockTime = 1106 s

Time = 46

velocityDampingConstraint velocityDamping damped 0 (0%) of cells, with max limit 300
[INFO] MatrixAssemblyU: 3320.805 [ms]
smoothSolver:  Solving for Ux, Initial residual = 0.0117642327040068, Final residual = 0.00105128290770637, No Iterations 13
smoothSolver:  Solving for Uy, Initial residual = 0.07214802380423473, Final residual = 0.006166221312003878, No Iterations 14
smoothSolver:  Solving for Uz, Initial residual = 0.06798919036681478, Final residual = 0.006302747848410964, No Iterations 13
[INFO] MomentumPredictor: 3333.121 [ms]
[INFO] MatrixAssemblyPI: 665.706 [ms]
[INFO] MatrixAssemblyPII: 314.595 [ms]
DICPCG:  Solving for p, Initial residual = 0.05453273484377979, Final residual = 0.000544413230659374, No Iterations 216
[INFO] SolveP: 18994.95 [ms]
time step continuity errors : sum local = 0.005324740669395841, global = -0.0003129614040915871, cumulative = 0.002096736288922642
[INFO] postSolveP: 160.889 [ms]
smoothSolver:  Solving for nuTilda, Initial residual = 0.01676755187845235, Final residual = 0.001016420533484969, No Iterations 3
[INFO] TimeStep: 29030.641 [ms]
ExecutionTime = 1132.32 s  ClockTime = 1138 s

Time = 47

velocityDampingConstraint velocityDamping damped 0 (0%) of cells, with max limit 300
[INFO] MatrixAssemblyU: 3322.971 [ms]
smoothSolver:  Solving for Ux, Initial residual = 0.01173129329893007, Final residual = 0.001058635650861879, No Iterations 13
smoothSolver:  Solving for Uy, Initial residual = 0.07215830352898522, Final residual = 0.006170945419654623, No Iterations 14
smoothSolver:  Solving for Uz, Initial residual = 0.06710684630561468, Final residual = 0.006362573308024947, No Iterations 13
[INFO] MomentumPredictor: 3327.55 [ms]
[INFO] MatrixAssemblyPI: 667.903 [ms]
[INFO] MatrixAssemblyPII: 312.995 [ms]
DICPCG:  Solving for p, Initial residual = 0.05587343684519132, Final residual = 0.0005527554584754919, No Iterations 85
[INFO] SolveP: 7548.663 [ms]
time step continuity errors : sum local = 0.005165000248355573, global = 0.0006130385602438345, cumulative = 0.002709774849166477
[INFO] postSolveP: 160.075 [ms]
smoothSolver:  Solving for nuTilda, Initial residual = 0.01131212124457523, Final residual = 0.001006937001550803, No Iterations 3
[INFO] TimeStep: 17573.946 [ms]
ExecutionTime = 1152.37 s  ClockTime = 1158 s

Time = 48

velocityDampingConstraint velocityDamping damped 0 (0%) of cells, with max limit 300
[INFO] MatrixAssemblyU: 3321.78 [ms]
smoothSolver:  Solving for Ux, Initial residual = 0.01164665274862928, Final residual = 0.001063506212472094, No Iterations 13
smoothSolver:  Solving for Uy, Initial residual = 0.07133647757691265, Final residual = 0.00613899162141193, No Iterations 14
smoothSolver:  Solving for Uz, Initial residual = 0.06565158242957617, Final residual = 0.006342411605621091, No Iterations 13
[INFO] MomentumPredictor: 3330.449 [ms]
[INFO] MatrixAssemblyPI: 665.082 [ms]
[INFO] MatrixAssemblyPII: 311.633 [ms]
DICPCG:  Solving for p, Initial residual = 0.05485726570689441, Final residual = 0.00054516590379704, No Iterations 131
[INFO] SolveP: 11562.83 [ms]
time step continuity errors : sum local = 0.005073808536890376, global = 0.001028607663533145, cumulative = 0.003738382512699622
[INFO] postSolveP: 160.076 [ms]
smoothSolver:  Solving for nuTilda, Initial residual = 0.01597463465692306, Final residual = 0.0009747731194161918, No Iterations 3
[INFO] TimeStep: 21593.976 [ms]
ExecutionTime = 1176.41 s  ClockTime = 1182 s

Time = 49

velocityDampingConstraint velocityDamping damped 0 (0%) of cells, with max limit 300
[INFO] MatrixAssemblyU: 3319.276 [ms]
smoothSolver:  Solving for Ux, Initial residual = 0.01150834225614295, Final residual = 0.00106879236111951, No Iterations 13
smoothSolver:  Solving for Uy, Initial residual = 0.07085029457337604, Final residual = 0.006141782619741493, No Iterations 14
smoothSolver:  Solving for Uz, Initial residual = 0.06479096040406221, Final residual = 0.006343266872635904, No Iterations 13
[INFO] MomentumPredictor: 3318.086 [ms]
[INFO] MatrixAssemblyPI: 667.3339999999999 [ms]
[INFO] MatrixAssemblyPII: 311.122 [ms]
DICPCG:  Solving for p, Initial residual = 0.05378017574085722, Final residual = 0.0005331072249867344, No Iterations 94
[INFO] SolveP: 8337.981 [ms]
time step continuity errors : sum local = 0.004994136849955326, global = 0.001260861300909093, cumulative = 0.004999243813608715
[INFO] postSolveP: 160.296 [ms]
smoothSolver:  Solving for nuTilda, Initial residual = 0.01086305251354792, Final residual = 0.0009688717312860129, No Iterations 3
[INFO] TimeStep: 18351.837 [ms]
ExecutionTime = 1197.24 s  ClockTime = 1203 s

Time = 50

velocityDampingConstraint velocityDamping damped 0 (0%) of cells, with max limit 300
[INFO] MatrixAssemblyU: 3320.267 [ms]
smoothSolver:  Solving for Ux, Initial residual = 0.01148206004188291, Final residual = 0.00106913380373094, No Iterations 13
smoothSolver:  Solving for Uy, Initial residual = 0.06960775059451173, Final residual = 0.006048012741587489, No Iterations 14
smoothSolver:  Solving for Uz, Initial residual = 0.0638151177119031, Final residual = 0.00629772898391458, No Iterations 13
[INFO] MomentumPredictor: 3340.665 [ms]
[INFO] MatrixAssemblyPI: 665.4690000000001 [ms]
[INFO] MatrixAssemblyPII: 311.249 [ms]
DICPCG:  Solving for p, Initial residual = 0.05329535293348488, Final residual = 0.0005273123868770517, No Iterations 219
[INFO] SolveP: 19250.31 [ms]
time step continuity errors : sum local = 0.004927106703441776, global = 1.269565856033202e-05, cumulative = 0.005011939472169047
[INFO] postSolveP: 161.421 [ms]
smoothSolver:  Solving for nuTilda, Initial residual = 0.01528436051288417, Final residual = 0.0009421310531968696, No Iterations 3
[INFO] TimeStep: 29293.65 [ms]
ExecutionTime = 1228.94 s  ClockTime = 1235 s

End

Finalising parallel run
