/*---------------------------------------------------------------------------*\
| =========                 |                                                 |
| \\      /  F ield         | OpenFOAM: The Open Source CFD Toolbox           |
|  \\    /   O peration     | Version:  2306                                  |
|   \\  /    A nd           | Website:  www.openfoam.com                      |
|    \\/     M anipulation  |                                                 |
\*---------------------------------------------------------------------------*/
Build  : c423ebec-20231012 OPENFOAM=2306 version=v2306
Arch   : "LSB;label=32;scalar=64"
Exec   : simpleFoam -parallel -case /hkfs/work/workspace/scratch/eq4036-windsorbody_setup/workspace/21070c1f65abf25e68b8aafffba943eb/case
Date   : Feb 16 2024
Time   : 20:42:22
Host   : hkn0511.localdomain
PID    : 1630040
I/O    : uncollated
Case   : /hkfs/work/workspace/scratch/eq4036-windsorbody_setup/workspace/21070c1f65abf25e68b8aafffba943eb/case
nProcs : 16
Hosts  :
(
    (hkn0511.localdomain 8)
    (hkn0512.localdomain 8)
)
Pstream initialized with:
    floatTransfer      : false
    nProcsSimpleSum    : 0
    nonBlockingExchange: 0 (tuning: 0)
    exchange algorithm : -1
    commsType          : nonBlocking
    polling iterations : 0
trapFpe: Floating point exception trapping enabled (FOAM_SIGFPE).
fileModificationChecking : Monitoring run-time modified files using timeStampMaster (fileModificationSkew 5, maxFileModificationPolls 20)
allowSystemOperations : Allowing user-supplied system call operations

// * * * * * * * * * * * * * * * * * * * * * * * * * * * * * * * * * * * * * //
Create time

--> FOAM Warning : 
    From void* Foam::dlLibraryTable::openLibrary(const Foam::fileName&, bool)
    in file db/dynamicLibrary/dlLibraryTable/dlLibraryTable.C at line 188
    Could not load "libpetscFoam.so"
libpetscFoam.so: cannot open shared object file: No such file or directory
Create mesh for time = 0


SIMPLE: convergence criteria
    field p	 tolerance 1e-08
    field U	 tolerance 1e-08
    field k	 tolerance 1e-08
    field omega	 tolerance 1e-08
    field nuTilda	 tolerance 1e-08

Reading field p

Reading field U

Reading/calculating face flux field phi

Selecting incompressible transport model Newtonian
Selecting turbulence model type RAS
Selecting RAS turbulence model SpalartAllmaras
Selecting patchDistMethod meshWave
ft2 term: inactive
RAS
{
    RASModel        SpalartAllmaras;
    turbulence      on;
    printCoeffs     on;
    sigmaNut        0.66666;
    kappa           0.41;
    Cb1             0.1355;
    Cb2             0.622;
    Cw2             0.3;
    Cw3             2;
    Cv1             7.1;
    Cs              0.3;
    ck              0.07000000000000001;
    ft2             false;
    Ct3             1.2;
    Ct4             0.5;
}

No MRF models present

Creating finite volume options from "system/fvOptions"

Selecting finite volume options type velocityDampingConstraint
    Source: velocityDamping
    - selecting all cells
    - selected 12614272 cell(s) with volume 55.65166103214617

Starting time loop

--> FOAM Warning : 
    From bool Foam::functionObjectList::read()
    in file db/functionObjects/functionObjectList/functionObjectList.C at line 1035
    Reading "system/controlDict" at line 2 to 41
    Entry 'lref' is not a dictionary
--> FOAM Warning : 
    From bool Foam::functionObjectList::read()
    in file db/functionObjects/functionObjectList/functionObjectList.C at line 1035
    Reading "system/controlDict" at line 2 to 41
    Entry 'Aref' is not a dictionary
--> FOAM Warning : 
    From bool Foam::functionObjectList::read()
    in file db/functionObjects/functionObjectList/functionObjectList.C at line 1035
    Reading "system/controlDict" at line 2 to 41
    Entry 'yawAngle' is not a dictionary
--> FOAM Warning : 
    From bool Foam::functionObjectList::read()
    in file db/functionObjects/functionObjectList/functionObjectList.C at line 1035
    Reading "system/controlDict" at line 2 to 41
    Entry 'lDomain' is not a dictionary
--> FOAM Warning : 
    From bool Foam::functionObjectList::read()
    in file db/functionObjects/functionObjectList/functionObjectList.C at line 1035
    Reading "system/controlDict" at line 2 to 41
    Entry 'bDomain' is not a dictionary
--> FOAM Warning : 
    From bool Foam::functionObjectList::read()
    in file db/functionObjects/functionObjectList/functionObjectList.C at line 1035
    Reading "system/controlDict" at line 2 to 41
    Entry 'hDomain' is not a dictionary
--> FOAM Warning : 
    From bool Foam::functionObjectList::read()
    in file db/functionObjects/functionObjectList/functionObjectList.C at line 1035
    Reading "system/controlDict" at line 2 to 41
    Entry 'xCenter' is not a dictionary
--> FOAM Warning : 
    From bool Foam::functionObjectList::read()
    in file db/functionObjects/functionObjectList/functionObjectList.C at line 1035
    Reading "system/controlDict" at line 2 to 41
    Entry 'yCenter' is not a dictionary
--> FOAM Warning : 
    From bool Foam::functionObjectList::read()
    in file db/functionObjects/functionObjectList/functionObjectList.C at line 1035
    Reading "system/controlDict" at line 2 to 41
    Entry 'zCenter' is not a dictionary
--> FOAM Warning : 
    From bool Foam::functionObjectList::read()
    in file db/functionObjects/functionObjectList/functionObjectList.C at line 1035
    Reading "system/controlDict" at line 2 to 41
    Entry 'inletPatch' is not a dictionary
--> FOAM Warning : 
    From bool Foam::functionObjectList::read()
    in file db/functionObjects/functionObjectList/functionObjectList.C at line 1035
    Reading "system/controlDict" at line 2 to 41
    Entry 'outletPatch' is not a dictionary
--> FOAM Warning : 
    From bool Foam::functionObjectList::read()
    in file db/functionObjects/functionObjectList/functionObjectList.C at line 1035
    Reading "system/controlDict" at line 2 to 41
    Entry 'wallPatches' is not a dictionary
--> FOAM Warning : 
    From bool Foam::functionObjectList::read()
    in file db/functionObjects/functionObjectList/functionObjectList.C at line 1035
    Reading "system/controlDict" at line 2 to 41
    Entry 'forcesWallPatches' is not a dictionary
--> FOAM Warning : 
    From bool Foam::functionObjectList::read()
    in file db/functionObjects/functionObjectList/functionObjectList.C at line 1035
    Reading "system/controlDict" at line 2 to 41
    Entry 'symmPatches' is not a dictionary
--> FOAM Warning : 
    From bool Foam::functionObjectList::read()
    in file db/functionObjects/functionObjectList/functionObjectList.C at line 1035
    Reading "system/controlDict" at line 2 to 41
    Entry 'Uinf' is not a dictionary
--> FOAM Warning : 
    From bool Foam::functionObjectList::read()
    in file db/functionObjects/functionObjectList/functionObjectList.C at line 1035
    Reading "system/controlDict" at line 2 to 41
    Entry 'UinfMag' is not a dictionary
--> FOAM Warning : 
    From bool Foam::functionObjectList::read()
    in file db/functionObjects/functionObjectList/functionObjectList.C at line 1035
    Reading "system/controlDict" at line 2 to 41
    Entry 'nu' is not a dictionary
--> FOAM Warning : 
    From bool Foam::functionObjectList::read()
    in file db/functionObjects/functionObjectList/functionObjectList.C at line 1035
    Reading "system/controlDict" at line 2 to 41
    Entry 'pref' is not a dictionary
--> FOAM Warning : 
    From bool Foam::functionObjectList::read()
    in file db/functionObjects/functionObjectList/functionObjectList.C at line 1035
    Reading "system/controlDict" at line 2 to 41
    Entry 'viscRatio' is not a dictionary
--> FOAM Warning : 
    From bool Foam::functionObjectList::read()
    in file db/functionObjects/functionObjectList/functionObjectList.C at line 1035
    Reading "system/controlDict" at line 2 to 41
    Entry 'Tu' is not a dictionary
--> FOAM Warning : 
    From bool Foam::functionObjectList::read()
    in file db/functionObjects/functionObjectList/functionObjectList.C at line 1035
    Reading "system/controlDict" at line 2 to 41
    Entry 'LESturbModel' is not a dictionary
--> FOAM Warning : 
    From bool Foam::functionObjectList::read()
    in file db/functionObjects/functionObjectList/functionObjectList.C at line 1035
    Reading "system/controlDict" at line 2 to 41
    Entry 'RASturbModel' is not a dictionary
--> FOAM Warning : 
    From bool Foam::functionObjectList::read()
    in file db/functionObjects/functionObjectList/functionObjectList.C at line 1035
    Reading "system/controlDict" at line 2 to 41
    Entry 'deltaTurb' is not a dictionary
--> FOAM Warning : 
    From bool Foam::functionObjectList::read()
    in file db/functionObjects/functionObjectList/functionObjectList.C at line 1035
    Reading "system/controlDict" at line 2 to 41
    Entry 'dt' is not a dictionary
--> FOAM Warning : 
    From bool Foam::functionObjectList::read()
    in file db/functionObjects/functionObjectList/functionObjectList.C at line 1035
    Reading "system/controlDict" at line 2 to 41
    Entry 'tAvg' is not a dictionary
--> FOAM Warning : 
    From bool Foam::functionObjectList::read()
    in file db/functionObjects/functionObjectList/functionObjectList.C at line 1035
    Reading "system/controlDict" at line 2 to 41
    Entry 'tEnd' is not a dictionary
--> FOAM Warning : 
    From bool Foam::functionObjectList::read()
    in file db/functionObjects/functionObjectList/functionObjectList.C at line 1035
    Reading "system/controlDict" at line 2 to 41
    Entry 'writeInterval_' is not a dictionary
--> FOAM Warning : 
    From bool Foam::functionObjectList::read()
    in file db/functionObjects/functionObjectList/functionObjectList.C at line 1035
    Reading "system/controlDict" at line 2 to 41
    Entry 'nCores' is not a dictionary
--> FOAM Warning : 
    From bool Foam::functionObjectList::read()
    in file db/functionObjects/functionObjectList/functionObjectList.C at line 1035
    Reading "system/controlDict" at line 2 to 41
    Entry 'interpScheme' is not a dictionary
--> FOAM Warning : 
    From bool Foam::functionObjectList::read()
    in file db/functionObjects/functionObjectList/functionObjectList.C at line 1035
    Reading "system/controlDict" at line 2 to 41
    Entry 'probeField' is not a dictionary
wallShearStress wallShearStress:
    processing wall patches: 
        Windsor_Body
        CFDWT_Floor
        Windsor_Pins
        Windsor_Base
        Windsor_Body_2
        CFDWT_Floor_2
        Windsor_Pins_2
        Windsor_Base_2

pressure calc_cp:
    Operating mode: staticCoeff
    Not including hydrostatic effects

forceCoeffs forceCoeffsAll:
    rho: rhoInf
    Freestream density (rhoInf) set to 1
    Not including porosity effects
    magUInf: 40
    lRef   : 0.6375
    Aref   : 0.1124
    rhoInf : 1
    Selecting all coefficients
    - Drag force: Cd
    - Drag force front: Cd(f)
    - Drag force rear: Cd(r)
    - Lift force: Cl
    - Lift force front: Cl(f)
    - Lift force rear: Cl(r)
    - Pitch moment: CmPitch
    - Roll moment: CmRoll
    - Yaw moment: CmYaw
    - Side force: Cs
    - Side force front: Cs(f)
    - Side force rear: Cs(r)


forceCoeffs dragCoeffBase:
    rho: rhoInf
    Freestream density (rhoInf) set to 1
    Not including porosity effects
    magUInf: 40
    lRef   : 0.6375
    Aref   : 0.1124
    rhoInf : 1
    Selecting coefficients:
    - Drag force: Cd


Time = 1

velocityDampingConstraint velocityDamping damped 0 (0%) of cells, with max limit 300
[OGL LOG][lduLduBase.H:119] Initialising OGL
	OGL commit:  e75313f+
	Branch: dev 
	Build type: Debug
	Ginkgo version: 1.8.0 ( develop)
	Ginkgo commit: sparse-communicator
	MPI is GPU aware: 1
	Forces host buffer based communication: 0
	CPU ranks per GPU: 1
	Matrix format: Coo
	End OGL_INFO
[OGL LOG][Proc: 0]: global_index_init: 43.115 [ms]
[OGL LOG][Proc: 0]Ux_local_cols: call_init: 2.22 [ms]
[OGL LOG][Proc: 0]Ux_local_rows: call_init: 0.628 [ms]
[OGL LOG][Proc: 0]Ux_local_ldu_map: call_init: 0.339 [ms]
[OGL LOG][Proc: 0]Ux_local_coeffs: call_init: 3.962 [ms]
[OGL LOG][Proc: 0]Ux_non_local_cols: call_init: 0.398 [ms]
[OGL LOG][Proc: 0]Ux_non_local_rows: call_init: 0.271 [ms]
[OGL LOG][Proc: 0]Ux_non_local_ldu_map: call_init: 0.246 [ms]
[OGL LOG][Proc: 0]Ux_non_local_coeffs: call_init: 0.308 [ms]
[OGL LOG][Proc: 0]Ux: init_local_sparsity_pattern: 30528.057 [ms]
[OGL LOG][Proc: 0]Ux: init_non_local_sparsity_pattern: 274.97 [ms]
[OGL LOG][Proc: 0]Ux: update_local_matrix_data: 72.203 [ms]
[OGL LOG][Proc: 0]Ux: update_non_local_matrix_data: 0.673 [ms]
[OGL LOG][Proc: 0]device_partition: call_init: 1.065 [ms]
[OGL LOG][Proc: 0]Ux_matrix: call_init: 76.411 [ms]
[OGL LOG][Proc: 0]Ux_rhs: call_init: 1.425 [ms]
[OGL LOG][Proc: 0]Ux_solution: call_init: 2.066 [ms]
[OGL LOG][Preconditioner.H:121] Generate preconditioner BJ MaxBlockSize 1
[OGL LOG][Proc: 0]Ux: init_precond: 13.189 [ms]
[OGL LOG][StoppingCriterion.H:239] Creating stopping criterion with minIter 0 frequency 1
[OGL LOG][Proc: 0]Ux: generate_solver: 0.162 [ms]
[OGL LOG][Proc: 0]Ux: solve: 187.9 [ms]
[OGL LOG][Proc: 0]Ux: copy_x_back: 2.582 [ms]
[OGL LOG][lduLduBase.H:330] 
Statistics:
	Time per iteration: 26842 [mu s]
	Time per residual norm calculation: 4242.000000 [mu s]
	Time per iteration and DOF: 2.127907 [ns]
	Retrieve results bandwidth 2.940000 [GByte/s]
[OGL LOG][Proc: 0]Ux: solve_multi_gpu: 299.527 [ms]
BJcudaGKOBiCGStab:  Solving for Ux, Initial residual = 1.000000000000013, Final residual = 0.04568475506373119, No Iterations 7
[OGL LOG][lduLduBase.H:119] Initialising OGL
	OGL commit:  e75313f+
	Branch: dev 
	Build type: Debug
	Ginkgo version: 1.8.0 ( develop)
	Ginkgo commit: sparse-communicator
	MPI is GPU aware: 1
	Forces host buffer based communication: 0
	CPU ranks per GPU: 1
	Matrix format: Coo
	End OGL_INFO
[OGL LOG][Proc: 0]: global_index_init: 0.251 [ms]
[OGL LOG][Proc: 0]Uy_local_cols: call_init: 0.033 [ms]
[OGL LOG][Proc: 0]Uy_local_rows: call_init: 0.027 [ms]
[OGL LOG][Proc: 0]Uy_local_ldu_map: call_init: 0.005 [ms]
[OGL LOG][Proc: 0]Uy_local_coeffs: call_init: 0.717 [ms]
[OGL LOG][Proc: 0]Uy_non_local_cols: call_init: 0.011 [ms]
[OGL LOG][Proc: 0]Uy_non_local_rows: call_init: 0.004 [ms]
[OGL LOG][Proc: 0]Uy_non_local_ldu_map: call_init: 0.004 [ms]
[OGL LOG][Proc: 0]Uy_non_local_coeffs: call_init: 0.008 [ms]
[OGL LOG][Proc: 0]Uy: init_local_sparsity_pattern: 30535.678 [ms]
[OGL LOG][Proc: 0]Uy: init_non_local_sparsity_pattern: 256.338 [ms]
[OGL LOG][Proc: 0]Uy: update_local_matrix_data: 38.06 [ms]
[OGL LOG][Proc: 0]Uy: update_non_local_matrix_data: 0.609 [ms]
[OGL LOG][Proc: 0]Uy_matrix: call_init: 89.54600000000001 [ms]
[OGL LOG][Proc: 0]Uy_rhs: call_init: 2.214 [ms]
[OGL LOG][Proc: 0]Uy_solution: call_init: 2.988 [ms]
[OGL LOG][Preconditioner.H:121] Generate preconditioner BJ MaxBlockSize 1
[OGL LOG][Proc: 0]Uy: init_precond: 1.587 [ms]
[OGL LOG][StoppingCriterion.H:239] Creating stopping criterion with minIter 0 frequency 1
[OGL LOG][Proc: 0]Uy: generate_solver: 0.025 [ms]
[OGL LOG][Proc: 0]Uy: solve: 180.234 [ms]
[OGL LOG][Proc: 0]Uy: copy_x_back: 2.414 [ms]
[OGL LOG][lduLduBase.H:330] 
Statistics:
	Time per iteration: 18023 [mu s]
	Time per residual norm calculation: 1670.000000 [mu s]
	Time per iteration and DOF: 1.428778 [ns]
	Retrieve results bandwidth 3.145000 [GByte/s]
[OGL LOG][Proc: 0]Uy: solve_multi_gpu: 295.661 [ms]
BJcudaGKOBiCGStab:  Solving for Uy, Initial residual = 1.000000000000026, Final residual = 0.07725065440293225, No Iterations 10
[OGL LOG][lduLduBase.H:119] Initialising OGL
	OGL commit:  e75313f+
	Branch: dev 
	Build type: Debug
	Ginkgo version: 1.8.0 ( develop)
	Ginkgo commit: sparse-communicator
	MPI is GPU aware: 1
	Forces host buffer based communication: 0
	CPU ranks per GPU: 1
	Matrix format: Coo
	End OGL_INFO
[OGL LOG][Proc: 0]: global_index_init: 1.627 [ms]
[OGL LOG][Proc: 0]Uz_local_cols: call_init: 0.192 [ms]
[OGL LOG][Proc: 0]Uz_local_rows: call_init: 0.22 [ms]
[OGL LOG][Proc: 0]Uz_local_ldu_map: call_init: 0.628 [ms]
[OGL LOG][Proc: 0]Uz_local_coeffs: call_init: 0.83 [ms]
[OGL LOG][Proc: 0]Uz_non_local_cols: call_init: 0.27 [ms]
[OGL LOG][Proc: 0]Uz_non_local_rows: call_init: 0.369 [ms]
[OGL LOG][Proc: 0]Uz_non_local_ldu_map: call_init: 0.229 [ms]
[OGL LOG][Proc: 0]Uz_non_local_coeffs: call_init: 0.379 [ms]
[OGL LOG][Proc: 0]Uz: init_local_sparsity_pattern: 30527.016 [ms]
[OGL LOG][Proc: 0]Uz: init_non_local_sparsity_pattern: 271.761 [ms]
[OGL LOG][Proc: 0]Uz: update_local_matrix_data: 41.073 [ms]
[OGL LOG][Proc: 0]Uz: update_non_local_matrix_data: 0.603 [ms]
[OGL LOG][Proc: 0]Uz_matrix: call_init: 86.907 [ms]
[OGL LOG][Proc: 0]Uz_rhs: call_init: 1.283 [ms]
[OGL LOG][Proc: 0]Uz_solution: call_init: 3.449 [ms]
[OGL LOG][Preconditioner.H:121] Generate preconditioner BJ MaxBlockSize 1
[OGL LOG][Proc: 0]Uz: init_precond: 1.452 [ms]
[OGL LOG][StoppingCriterion.H:239] Creating stopping criterion with minIter 0 frequency 1
[OGL LOG][Proc: 0]Uz: generate_solver: 0.026 [ms]
[OGL LOG][Proc: 0]Uz: solve: 65.158 [ms]
[OGL LOG][Proc: 0]Uz: copy_x_back: 2.234 [ms]
[OGL LOG][lduLduBase.H:330] 
Statistics:
	Time per iteration: 65158 [mu s]
	Time per residual norm calculation: 1648.000000 [mu s]
	Time per iteration and DOF: 5.165419 [ns]
	Retrieve results bandwidth 3.398000 [GByte/s]
[OGL LOG][Proc: 0]Uz: solve_multi_gpu: 175.64 [ms]
BJcudaGKOBiCGStab:  Solving for Uz, Initial residual = 1.000000000000021, Final residual = 0.07317246117889546, No Iterations 1
[OGL LOG][lduLduBase.H:119] Initialising OGL
	OGL commit:  e75313f+
	Branch: dev 
	Build type: Debug
	Ginkgo version: 1.8.0 ( develop)
	Ginkgo commit: sparse-communicator
	MPI is GPU aware: 1
	Forces host buffer based communication: 0
	CPU ranks per GPU: 1
	Matrix format: Coo
	End OGL_INFO
[OGL LOG][Proc: 0]: global_index_init: 0.041 [ms]
[OGL LOG][Proc: 0]p_local_cols: call_init: 0.351 [ms]
[OGL LOG][Proc: 0]p_local_rows: call_init: 0.678 [ms]
[OGL LOG][Proc: 0]p_local_ldu_map: call_init: 0.462 [ms]
[OGL LOG][Proc: 0]p_local_coeffs: call_init: 1.587 [ms]
[OGL LOG][Proc: 0]p_non_local_cols: call_init: 0.496 [ms]
[OGL LOG][Proc: 0]p_non_local_rows: call_init: 0.828 [ms]
[OGL LOG][Proc: 0]p_non_local_ldu_map: call_init: 0.626 [ms]
[OGL LOG][Proc: 0]p_non_local_coeffs: call_init: 0.352 [ms]
[OGL LOG][Proc: 0]p: init_local_sparsity_pattern: 30573.617 [ms]
[OGL LOG][Proc: 0]p: init_non_local_sparsity_pattern: 164.299 [ms]
[OGL LOG][Proc: 0]p: update_local_matrix_data: 25.726 [ms]
[OGL LOG][Proc: 0]p: update_non_local_matrix_data: 0.6929999999999999 [ms]
[OGL LOG][Proc: 0]p_matrix: call_init: 90.435 [ms]
[OGL LOG][Proc: 0]p_rhs: call_init: 1.242 [ms]
[OGL LOG][Proc: 0]p_solution: call_init: 3.481 [ms]
[OGL LOG][Preconditioner.H:346] Generate preconditioner Multigrid MaxLevels 9 MinCoarseRows 10 ZeroGuess 1 Cycle v
[OGL LOG][Proc: 0]p: init_precond: 383.802 [ms]
[OGL LOG][StoppingCriterion.H:239] Creating stopping criterion with minIter 0 frequency 1
[OGL LOG][Proc: 0]p: generate_solver: 0.028 [ms]
[OGL LOG][Proc: 0]p: solve: 1378.814 [ms]
[OGL LOG][Proc: 0]p: copy_x_back: 2.793 [ms]
[OGL LOG][lduLduBase.H:330] 
Statistics:
	Time per iteration: 11030 [mu s]
	Time per residual norm calculation: 1266.000000 [mu s]
	Time per iteration and DOF: 0.874406 [ns]
	Retrieve results bandwidth 2.718000 [GByte/s]
[OGL LOG][Proc: 0]p: solve_multi_gpu: 1898.819 [ms]
MultigridcudaGKOCG:  Solving for p, Initial residual = 1.000000000000163, Final residual = 0.009570414541432497, No Iterations 125
time step continuity errors : sum local = 0.003467274658969486, global = 9.431774738166427e-05, cumulative = 9.431774738166427e-05
[OGL LOG][lduLduBase.H:119] Initialising OGL
	OGL commit:  e75313f+
	Branch: dev 
	Build type: Debug
	Ginkgo version: 1.8.0 ( develop)
	Ginkgo commit: sparse-communicator
	MPI is GPU aware: 1
	Forces host buffer based communication: 0
	CPU ranks per GPU: 1
	Matrix format: Coo
	End OGL_INFO
[OGL LOG][Proc: 0]: global_index_init: 0.026 [ms]
[OGL LOG][Proc: 0]nuTilda_local_cols: call_init: 0.037 [ms]
[OGL LOG][Proc: 0]nuTilda_local_rows: call_init: 0.03 [ms]
[OGL LOG][Proc: 0]nuTilda_local_ldu_map: call_init: 0.016 [ms]
[OGL LOG][Proc: 0]nuTilda_local_coeffs: call_init: 0.716 [ms]
[OGL LOG][Proc: 0]nuTilda_non_local_cols: call_init: 0.028 [ms]
[OGL LOG][Proc: 0]nuTilda_non_local_rows: call_init: 0.019 [ms]
[OGL LOG][Proc: 0]nuTilda_non_local_ldu_map: call_init: 0.004 [ms]
[OGL LOG][Proc: 0]nuTilda_non_local_coeffs: call_init: 0.008 [ms]
[OGL LOG][Proc: 0]nuTilda: init_local_sparsity_pattern: 30860.55 [ms]
[OGL LOG][Proc: 0]nuTilda: init_non_local_sparsity_pattern: 74.258 [ms]
[OGL LOG][Proc: 0]nuTilda: update_local_matrix_data: 36.437 [ms]
[OGL LOG][Proc: 0]nuTilda: update_non_local_matrix_data: 0.593 [ms]
[OGL LOG][Proc: 0]nuTilda_matrix: call_init: 90.65600000000001 [ms]
[OGL LOG][Proc: 0]nuTilda_rhs: call_init: 1.995 [ms]
[OGL LOG][Proc: 0]nuTilda_solution: call_init: 1.674 [ms]
[OGL LOG][Preconditioner.H:121] Generate preconditioner BJ MaxBlockSize 1
[OGL LOG][Proc: 0]nuTilda: init_precond: 1.534 [ms]
[OGL LOG][StoppingCriterion.H:239] Creating stopping criterion with minIter 0 frequency 1
[OGL LOG][Proc: 0]nuTilda: generate_solver: 0.023 [ms]
[OGL LOG][Proc: 0]nuTilda: solve: 79.83499999999999 [ms]
[OGL LOG][Proc: 0]nuTilda: copy_x_back: 2.503 [ms]
[OGL LOG][lduLduBase.H:330] 
Statistics:
	Time per iteration: 26611 [mu s]
	Time per residual norm calculation: 1270.000000 [mu s]
	Time per iteration and DOF: 2.109595 [ns]
	Retrieve results bandwidth 3.033000 [GByte/s]
[OGL LOG][Proc: 0]nuTilda: solve_multi_gpu: 195.973 [ms]
BJcudaGKOBiCGStab:  Solving for nuTilda, Initial residual = 0.9999999950042247, Final residual = 0.03403535079256474, No Iterations 3
bounding nuTilda, min: -0.0003579155385586411 max: 0.001576435344380613 average: 7.142536511146844e-05
ExecutionTime = 171.03 s  ClockTime = 172 s

--> FOAM Warning : 
    From virtual bool Foam::functionObjects::fieldSelection::checkSelection()
    in file functionObjects/fieldSelections/fieldSelection/fieldSelection.C at line 166
    Field k not found
--> FOAM Warning : 
    From virtual bool Foam::functionObjects::fieldSelection::checkSelection()
    in file functionObjects/fieldSelections/fieldSelection/fieldSelection.C at line 166
    Field gammaInt not found
--> FOAM Warning : 
    From virtual bool Foam::functionObjects::fieldSelection::checkSelection()
    in file functionObjects/fieldSelections/fieldSelection/fieldSelection.C at line 166
    Field omega not found
--> FOAM Warning : 
    From virtual bool Foam::functionObjects::fieldSelection::checkSelection()
    in file functionObjects/fieldSelections/fieldSelection/fieldSelection.C at line 166
    Field ReThetat not found
--> FOAM Warning : 
    From virtual bool Foam::functionObjects::fieldSelection::checkSelection()
    in file functionObjects/fieldSelections/fieldSelection/fieldSelection.C at line 166
    Field epsilon not found
--> FOAM Warning : 
    From virtual bool Foam::functionObjects::solverFieldSelection::updateSelection()
    in file functionObjects/fieldSelections/solverFieldSelection/solverFieldSelection.C at line 85
    Valid solver fields are: 3(U nuTilda p)Time = 2

velocityDampingConstraint velocityDamping damped 0 (0%) of cells, with max limit 300
[OGL LOG][Proc: 0]: global_index_init: 0.056 [ms]
[OGL LOG][Proc: 0]Ux_local_coeffs: call_update: 0.001 [ms]
[OGL LOG][Proc: 0]Ux_non_local_coeffs: call_update: 0 [ms]
[OGL LOG][Proc: 0]Ux: update_local_matrix_data: 37.697 [ms]
[OGL LOG][Proc: 0]Ux: update_non_local_matrix_data: 0.621 [ms]
[OGL LOG][Proc: 0]Ux_matrix: call_update: 2.669 [ms]
[OGL LOG][Proc: 0]Ux_rhs: call_update: 1.044 [ms]
[OGL LOG][Preconditioner.H:121] Generate preconditioner BJ MaxBlockSize 1
[OGL LOG][Proc: 0]Ux: init_precond: 1.477 [ms]
[OGL LOG][StoppingCriterion.H:239] Creating stopping criterion with minIter 8 frequency 1
[OGL LOG][Proc: 0]Ux: generate_solver: 0.014 [ms]
[OGL LOG][Proc: 0]Ux: solve: 79.471 [ms]
[OGL LOG][Proc: 0]Ux: copy_x_back: 2.516 [ms]
[OGL LOG][lduLduBase.H:330] 
Statistics:
	Time per iteration: 19867 [mu s]
	Time per residual norm calculation: 1814.000000 [mu s]
	Time per iteration and DOF: 1.574962 [ns]
	Retrieve results bandwidth 3.017000 [GByte/s]
[OGL LOG][Proc: 0]Ux: solve_multi_gpu: 93.919 [ms]
BJcudaGKOBiCGStab:  Solving for Ux, Initial residual = 0.8165229902353849, Final residual = 0.009513550010848434, No Iterations 4
[OGL LOG][Proc: 0]: global_index_init: 0.048 [ms]
[OGL LOG][Proc: 0]Uy_local_coeffs: call_update: 0 [ms]
[OGL LOG][Proc: 0]Uy_non_local_coeffs: call_update: 0 [ms]
[OGL LOG][Proc: 0]Uy: update_local_matrix_data: 37.07 [ms]
[OGL LOG][Proc: 0]Uy: update_non_local_matrix_data: 0.626 [ms]
[OGL LOG][Proc: 0]Uy_matrix: call_update: 2.643 [ms]
[OGL LOG][Proc: 0]Uy_rhs: call_update: 0.89 [ms]
[OGL LOG][Preconditioner.H:121] Generate preconditioner BJ MaxBlockSize 1
[OGL LOG][Proc: 0]Uy: init_precond: 1.491 [ms]
[OGL LOG][StoppingCriterion.H:239] Creating stopping criterion with minIter 12 frequency 1
[OGL LOG][Proc: 0]Uy: generate_solver: 0.015 [ms]
[OGL LOG][Proc: 0]Uy: solve: 95.845 [ms]
[OGL LOG][Proc: 0]Uy: copy_x_back: 2.533 [ms]
[OGL LOG][lduLduBase.H:330] 
Statistics:
	Time per iteration: 13692 [mu s]
	Time per residual norm calculation: 1745.000000 [mu s]
	Time per iteration and DOF: 1.085437 [ns]
	Retrieve results bandwidth 2.997000 [GByte/s]
[OGL LOG][Proc: 0]Uy: solve_multi_gpu: 111.114 [ms]
BJcudaGKOBiCGStab:  Solving for Uy, Initial residual = 0.9993514999363293, Final residual = 0.002348581224095304, No Iterations 7
[OGL LOG][Proc: 0]: global_index_init: 0.038 [ms]
[OGL LOG][Proc: 0]Uz_local_coeffs: call_update: 0 [ms]
[OGL LOG][Proc: 0]Uz_non_local_coeffs: call_update: 0 [ms]
[OGL LOG][Proc: 0]Uz: update_local_matrix_data: 37.091 [ms]
[OGL LOG][Proc: 0]Uz: update_non_local_matrix_data: 0.532 [ms]
[OGL LOG][Proc: 0]Uz_matrix: call_update: 2.668 [ms]
[OGL LOG][Proc: 0]Uz_rhs: call_update: 1.021 [ms]
[OGL LOG][Preconditioner.H:121] Generate preconditioner BJ MaxBlockSize 1
[OGL LOG][Proc: 0]Uz: init_precond: 1.972 [ms]
[OGL LOG][StoppingCriterion.H:239] Creating stopping criterion with minIter 1 frequency 1
[OGL LOG][Proc: 0]Uz: generate_solver: 0.018 [ms]
[OGL LOG][Proc: 0]Uz: solve: 60.047 [ms]
[OGL LOG][Proc: 0]Uz: copy_x_back: 2.381 [ms]
[OGL LOG][lduLduBase.H:330] 
Statistics:
	Time per iteration: 30023 [mu s]
	Time per residual norm calculation: 1481.000000 [mu s]
	Time per iteration and DOF: 2.380082 [ns]
	Retrieve results bandwidth 3.188000 [GByte/s]
[OGL LOG][Proc: 0]Uz: solve_multi_gpu: 81.47499999999999 [ms]
BJcudaGKOBiCGStab:  Solving for Uz, Initial residual = 0.9999379775202418, Final residual = 0.09491266418198908, No Iterations 2
[OGL LOG][Proc: 0]: global_index_init: 0.121 [ms]
[OGL LOG][Proc: 0]p_local_coeffs: call_update: 0 [ms]
[OGL LOG][Proc: 0]p_non_local_coeffs: call_update: 0 [ms]
[OGL LOG][Proc: 0]p: update_local_matrix_data: 30.962 [ms]
[OGL LOG][Proc: 0]p: update_non_local_matrix_data: 0.602 [ms]
[OGL LOG][Proc: 0]p_matrix: call_update: 2.554 [ms]
[OGL LOG][Proc: 0]p_rhs: call_update: 2.861 [ms]
[OGL LOG][Preconditioner.H:346] Generate preconditioner Multigrid MaxLevels 9 MinCoarseRows 10 ZeroGuess 1 Cycle v
[OGL LOG][Proc: 0]p: init_precond: 323.991 [ms]
[OGL LOG][StoppingCriterion.H:239] Creating stopping criterion with minIter 75 frequency 2
[OGL LOG][Proc: 0]p: generate_solver: 0.008999999999999999 [ms]
[OGL LOG][Proc: 0]p: solve: 933.269 [ms]
[OGL LOG][Proc: 0]p: copy_x_back: 2.698 [ms]
[OGL LOG][lduLduBase.H:330] 
Statistics:
	Time per iteration: 12120 [mu s]
	Time per residual norm calculation: 1266.000000 [mu s]
	Time per iteration and DOF: 0.960816 [ns]
	Retrieve results bandwidth 2.814000 [GByte/s]
[OGL LOG][Proc: 0]p: solve_multi_gpu: 1299.068 [ms]
MultigridcudaGKOCG:  Solving for p, Initial residual = 0.4362294917365866, Final residual = 0.003589585541062634, No Iterations 77
time step continuity errors : sum local = 0.07904158663789759, global = 0.01700408162712143, cumulative = 0.0170983993745031
[OGL LOG][Proc: 0]: global_index_init: 0.024 [ms]
[OGL LOG][Proc: 0]nuTilda_local_coeffs: call_update: 0 [ms]
[OGL LOG][Proc: 0]nuTilda_non_local_coeffs: call_update: 0 [ms]
[OGL LOG][Proc: 0]nuTilda: update_local_matrix_data: 35.793 [ms]
[OGL LOG][Proc: 0]nuTilda: update_non_local_matrix_data: 0.6 [ms]
[OGL LOG][Proc: 0]nuTilda_matrix: call_update: 2.397 [ms]
[OGL LOG][Proc: 0]nuTilda_rhs: call_update: 1.051 [ms]
[OGL LOG][Preconditioner.H:121] Generate preconditioner BJ MaxBlockSize 1
[OGL LOG][Proc: 0]nuTilda: init_precond: 1.915 [ms]
[OGL LOG][StoppingCriterion.H:239] Creating stopping criterion with minIter 3 frequency 1
[OGL LOG][Proc: 0]nuTilda: generate_solver: 0.021 [ms]
[OGL LOG][Proc: 0]nuTilda: solve: 63.661 [ms]
[OGL LOG][Proc: 0]nuTilda: copy_x_back: 2.488 [ms]
[OGL LOG][lduLduBase.H:330] 
Statistics:
	Time per iteration: 31830 [mu s]
	Time per residual norm calculation: 1271.000000 [mu s]
	Time per iteration and DOF: 2.523332 [ns]
	Retrieve results bandwidth 3.051000 [GByte/s]
[OGL LOG][Proc: 0]nuTilda: solve_multi_gpu: 81.137 [ms]
BJcudaGKOBiCGStab:  Solving for nuTilda, Initial residual = 0.24566384130892, Final residual = 0.01611231521337723, No Iterations 2
ExecutionTime = 176.15 s  ClockTime = 177 s

Time = 3

velocityDampingConstraint velocityDamping damped 9722 (0.08%) of cells, with max limit 300
[OGL LOG][Proc: 0]: global_index_init: 0.055 [ms]
[OGL LOG][Proc: 0]Ux_local_coeffs: call_update: 0 [ms]
[OGL LOG][Proc: 0]Ux_non_local_coeffs: call_update: 0 [ms]
[OGL LOG][Proc: 0]Ux: update_local_matrix_data: 38.027 [ms]
[OGL LOG][Proc: 0]Ux: update_non_local_matrix_data: 0.577 [ms]
[OGL LOG][Proc: 0]Ux_matrix: call_update: 2.939 [ms]
[OGL LOG][Proc: 0]Ux_rhs: call_update: 0.873 [ms]
[OGL LOG][Preconditioner.H:121] Generate preconditioner BJ MaxBlockSize 1
[OGL LOG][Proc: 0]Ux: init_precond: 2.018 [ms]
[OGL LOG][StoppingCriterion.H:239] Creating stopping criterion with minIter 5 frequency 1
[OGL LOG][Proc: 0]Ux: generate_solver: 0.019 [ms]
[OGL LOG][Proc: 0]Ux: solve: 66.48699999999999 [ms]
[OGL LOG][Proc: 0]Ux: copy_x_back: 2.538 [ms]
[OGL LOG][lduLduBase.H:330] 
Statistics:
	Time per iteration: 22162 [mu s]
	Time per residual norm calculation: 1642.000000 [mu s]
	Time per iteration and DOF: 1.756899 [ns]
	Retrieve results bandwidth 2.991000 [GByte/s]
[OGL LOG][Proc: 0]Ux: solve_multi_gpu: 80.002 [ms]
BJcudaGKOBiCGStab:  Solving for Ux, Initial residual = 0.3051347243562612, Final residual = 0.004891496492980079, No Iterations 3
[OGL LOG][Proc: 0]: global_index_init: 0.049 [ms]
[OGL LOG][Proc: 0]Uy_local_coeffs: call_update: 0 [ms]
[OGL LOG][Proc: 0]Uy_non_local_coeffs: call_update: 0 [ms]
[OGL LOG][Proc: 0]Uy: update_local_matrix_data: 37.554 [ms]
[OGL LOG][Proc: 0]Uy: update_non_local_matrix_data: 0.6 [ms]
[OGL LOG][Proc: 0]Uy_matrix: call_update: 3.155 [ms]
[OGL LOG][Proc: 0]Uy_rhs: call_update: 0.847 [ms]
[OGL LOG][Preconditioner.H:121] Generate preconditioner BJ MaxBlockSize 1
[OGL LOG][Proc: 0]Uy: init_precond: 1.374 [ms]
[OGL LOG][StoppingCriterion.H:239] Creating stopping criterion with minIter 8 frequency 1
[OGL LOG][Proc: 0]Uy: generate_solver: 0.018 [ms]
[OGL LOG][Proc: 0]Uy: solve: 78.526 [ms]
[OGL LOG][Proc: 0]Uy: copy_x_back: 2.43 [ms]
[OGL LOG][lduLduBase.H:330] 
Statistics:
	Time per iteration: 19631 [mu s]
	Time per residual norm calculation: 1617.000000 [mu s]
	Time per iteration and DOF: 1.556253 [ns]
	Retrieve results bandwidth 3.124000 [GByte/s]
[OGL LOG][Proc: 0]Uy: solve_multi_gpu: 91.42400000000001 [ms]
BJcudaGKOBiCGStab:  Solving for Uy, Initial residual = 0.3394501882208872, Final residual = 0.01094209103004641, No Iterations 4
[OGL LOG][Proc: 0]: global_index_init: 0.052 [ms]
[OGL LOG][Proc: 0]Uz_local_coeffs: call_update: 0 [ms]
[OGL LOG][Proc: 0]Uz_non_local_coeffs: call_update: 0 [ms]
[OGL LOG][Proc: 0]Uz: update_local_matrix_data: 36.422 [ms]
[OGL LOG][Proc: 0]Uz: update_non_local_matrix_data: 0.579 [ms]
[OGL LOG][Proc: 0]Uz_matrix: call_update: 3.143 [ms]
[OGL LOG][Proc: 0]Uz_rhs: call_update: 0.958 [ms]
[OGL LOG][Preconditioner.H:121] Generate preconditioner BJ MaxBlockSize 1
[OGL LOG][Proc: 0]Uz: init_precond: 1.483 [ms]
[OGL LOG][StoppingCriterion.H:239] Creating stopping criterion with minIter 2 frequency 1
[OGL LOG][Proc: 0]Uz: generate_solver: 0.015 [ms]
[OGL LOG][Proc: 0]Uz: solve: 66.21299999999999 [ms]
[OGL LOG][Proc: 0]Uz: copy_x_back: 2.499 [ms]
[OGL LOG][lduLduBase.H:330] 
Statistics:
	Time per iteration: 33106 [mu s]
	Time per residual norm calculation: 1603.000000 [mu s]
	Time per iteration and DOF: 2.624488 [ns]
	Retrieve results bandwidth 3.038000 [GByte/s]
[OGL LOG][Proc: 0]Uz: solve_multi_gpu: 79.078 [ms]
BJcudaGKOBiCGStab:  Solving for Uz, Initial residual = 0.2513827258710386, Final residual = 0.02452117754546965, No Iterations 2
[OGL LOG][Proc: 0]: global_index_init: 0.018 [ms]
[OGL LOG][Proc: 0]p_local_coeffs: call_update: 0 [ms]
[OGL LOG][Proc: 0]p_non_local_coeffs: call_update: 0 [ms]
[OGL LOG][Proc: 0]p: update_local_matrix_data: 28.865 [ms]
[OGL LOG][Proc: 0]p: update_non_local_matrix_data: 0.639 [ms]
[OGL LOG][Proc: 0]p_matrix: call_update: 2.672 [ms]
[OGL LOG][Proc: 0]p_rhs: call_update: 0.904 [ms]
[OGL LOG][Preconditioner.H:346] Generate preconditioner Multigrid MaxLevels 9 MinCoarseRows 10 ZeroGuess 1 Cycle v
[OGL LOG][Proc: 0]p: init_precond: 320.488 [ms]
[OGL LOG][StoppingCriterion.H:239] Creating stopping criterion with minIter 46 frequency 1
[OGL LOG][Proc: 0]p: generate_solver: 0.008999999999999999 [ms]
[OGL LOG][Proc: 0]p: solve: 1117.76 [ms]
[OGL LOG][Proc: 0]p: copy_x_back: 2.817 [ms]
[OGL LOG][lduLduBase.H:330] 
Statistics:
	Time per iteration: 10161 [mu s]
	Time per residual norm calculation: 1258.000000 [mu s]
	Time per iteration and DOF: 0.805516 [ns]
	Retrieve results bandwidth 2.695000 [GByte/s]
[OGL LOG][Proc: 0]p: solve_multi_gpu: 1470.961 [ms]
MultigridcudaGKOCG:  Solving for p, Initial residual = 0.3290300044690747, Final residual = 0.003016099155401743, No Iterations 110
time step continuity errors : sum local = 0.02266441082219765, global = 0.0003092153802588732, cumulative = 0.01740761475476197
[OGL LOG][Proc: 0]: global_index_init: 0.025 [ms]
[OGL LOG][Proc: 0]nuTilda_local_coeffs: call_update: 0 [ms]
[OGL LOG][Proc: 0]nuTilda_non_local_coeffs: call_update: 0 [ms]
[OGL LOG][Proc: 0]nuTilda: update_local_matrix_data: 39.47 [ms]
[OGL LOG][Proc: 0]nuTilda: update_non_local_matrix_data: 0.615 [ms]
[OGL LOG][Proc: 0]nuTilda_matrix: call_update: 2.357 [ms]
[OGL LOG][Proc: 0]nuTilda_rhs: call_update: 1.635 [ms]
[OGL LOG][Preconditioner.H:121] Generate preconditioner BJ MaxBlockSize 1
[OGL LOG][Proc: 0]nuTilda: init_precond: 1.9 [ms]
[OGL LOG][StoppingCriterion.H:239] Creating stopping criterion with minIter 3 frequency 1
[OGL LOG][Proc: 0]nuTilda: generate_solver: 0.015 [ms]
[OGL LOG][Proc: 0]nuTilda: solve: 62.452 [ms]
[OGL LOG][Proc: 0]nuTilda: copy_x_back: 2.545 [ms]
[OGL LOG][lduLduBase.H:330] 
Statistics:
	Time per iteration: 31226 [mu s]
	Time per residual norm calculation: 1442.000000 [mu s]
	Time per iteration and DOF: 2.475450 [ns]
	Retrieve results bandwidth 2.983000 [GByte/s]
[OGL LOG][Proc: 0]nuTilda: solve_multi_gpu: 78.67 [ms]
BJcudaGKOBiCGStab:  Solving for nuTilda, Initial residual = 0.225519589318879, Final residual = 0.01290312707517167, No Iterations 2
ExecutionTime = 181.41 s  ClockTime = 182 s

Time = 4

velocityDampingConstraint velocityDamping damped 246 (0%) of cells, with max limit 300
[OGL LOG][Proc: 0]: global_index_init: 0.056 [ms]
[OGL LOG][Proc: 0]Ux_local_coeffs: call_update: 0 [ms]
[OGL LOG][Proc: 0]Ux_non_local_coeffs: call_update: 0 [ms]
[OGL LOG][Proc: 0]Ux: update_local_matrix_data: 38.704 [ms]
[OGL LOG][Proc: 0]Ux: update_non_local_matrix_data: 0.5659999999999999 [ms]
[OGL LOG][Proc: 0]Ux_matrix: call_update: 2.107 [ms]
[OGL LOG][Proc: 0]Ux_rhs: call_update: 1.588 [ms]
[OGL LOG][Preconditioner.H:121] Generate preconditioner BJ MaxBlockSize 1
[OGL LOG][Proc: 0]Ux: init_precond: 1.735 [ms]
[OGL LOG][StoppingCriterion.H:239] Creating stopping criterion with minIter 3 frequency 1
[OGL LOG][Proc: 0]Ux: generate_solver: 0.015 [ms]
[OGL LOG][Proc: 0]Ux: solve: 80.935 [ms]
[OGL LOG][Proc: 0]Ux: copy_x_back: 2.445 [ms]
[OGL LOG][lduLduBase.H:330] 
Statistics:
	Time per iteration: 20233 [mu s]
	Time per residual norm calculation: 1647.000000 [mu s]
	Time per iteration and DOF: 1.603977 [ns]
	Retrieve results bandwidth 3.105000 [GByte/s]
[OGL LOG][Proc: 0]Ux: solve_multi_gpu: 93.723 [ms]
BJcudaGKOBiCGStab:  Solving for Ux, Initial residual = 0.04973981692012645, Final residual = 0.002806199749931035, No Iterations 4
[OGL LOG][Proc: 0]: global_index_init: 0.051 [ms]
[OGL LOG][Proc: 0]Uy_local_coeffs: call_update: 0 [ms]
[OGL LOG][Proc: 0]Uy_non_local_coeffs: call_update: 0 [ms]
[OGL LOG][Proc: 0]Uy: update_local_matrix_data: 37.368 [ms]
[OGL LOG][Proc: 0]Uy: update_non_local_matrix_data: 0.593 [ms]
[OGL LOG][Proc: 0]Uy_matrix: call_update: 2.635 [ms]
[OGL LOG][Proc: 0]Uy_rhs: call_update: 0.971 [ms]
[OGL LOG][Preconditioner.H:121] Generate preconditioner BJ MaxBlockSize 1
[OGL LOG][Proc: 0]Uy: init_precond: 1.942 [ms]
[OGL LOG][StoppingCriterion.H:239] Creating stopping criterion with minIter 5 frequency 1
[OGL LOG][Proc: 0]Uy: generate_solver: 0.018 [ms]
[OGL LOG][Proc: 0]Uy: solve: 71.375 [ms]
[OGL LOG][Proc: 0]Uy: copy_x_back: 2.476 [ms]
[OGL LOG][lduLduBase.H:330] 
Statistics:
	Time per iteration: 23791 [mu s]
	Time per residual norm calculation: 1624.000000 [mu s]
	Time per iteration and DOF: 1.886038 [ns]
	Retrieve results bandwidth 3.066000 [GByte/s]
[OGL LOG][Proc: 0]Uy: solve_multi_gpu: 85.126 [ms]
BJcudaGKOBiCGStab:  Solving for Uy, Initial residual = 0.1384708000520502, Final residual = 0.01317178609554644, No Iterations 3
[OGL LOG][Proc: 0]: global_index_init: 0.05 [ms]
[OGL LOG][Proc: 0]Uz_local_coeffs: call_update: 0 [ms]
[OGL LOG][Proc: 0]Uz_non_local_coeffs: call_update: 0 [ms]
[OGL LOG][Proc: 0]Uz: update_local_matrix_data: 37.373 [ms]
[OGL LOG][Proc: 0]Uz: update_non_local_matrix_data: 0.547 [ms]
[OGL LOG][Proc: 0]Uz_matrix: call_update: 2.677 [ms]
[OGL LOG][Proc: 0]Uz_rhs: call_update: 1.009 [ms]
[OGL LOG][Preconditioner.H:121] Generate preconditioner BJ MaxBlockSize 1
[OGL LOG][Proc: 0]Uz: init_precond: 1.951 [ms]
[OGL LOG][StoppingCriterion.H:239] Creating stopping criterion with minIter 3 frequency 1
[OGL LOG][Proc: 0]Uz: generate_solver: 0.015 [ms]
[OGL LOG][Proc: 0]Uz: solve: 68.422 [ms]
[OGL LOG][Proc: 0]Uz: copy_x_back: 2.504 [ms]
[OGL LOG][lduLduBase.H:330] 
Statistics:
	Time per iteration: 22807 [mu s]
	Time per residual norm calculation: 1633.000000 [mu s]
	Time per iteration and DOF: 1.808031 [ns]
	Retrieve results bandwidth 3.032000 [GByte/s]
[OGL LOG][Proc: 0]Uz: solve_multi_gpu: 82.354 [ms]
BJcudaGKOBiCGStab:  Solving for Uz, Initial residual = 0.1054177906525347, Final residual = 0.01031289333549774, No Iterations 3
[OGL LOG][Proc: 0]: global_index_init: 0.018 [ms]
[OGL LOG][Proc: 0]p_local_coeffs: call_update: 0 [ms]
[OGL LOG][Proc: 0]p_non_local_coeffs: call_update: 0 [ms]
[OGL LOG][Proc: 0]p: update_local_matrix_data: 31.181 [ms]
[OGL LOG][Proc: 0]p: update_non_local_matrix_data: 0.583 [ms]
[OGL LOG][Proc: 0]p_matrix: call_update: 2.789 [ms]
[OGL LOG][Proc: 0]p_rhs: call_update: 0.906 [ms]
[OGL LOG][Preconditioner.H:346] Generate preconditioner Multigrid MaxLevels 9 MinCoarseRows 10 ZeroGuess 1 Cycle v
[OGL LOG][Proc: 0]p: init_precond: 318.997 [ms]
[OGL LOG][StoppingCriterion.H:239] Creating stopping criterion with minIter 66 frequency 2
[OGL LOG][Proc: 0]p: generate_solver: 0.008999999999999999 [ms]
[OGL LOG][Proc: 0]p: solve: 667.168 [ms]
[OGL LOG][Proc: 0]p: copy_x_back: 2.732 [ms]
[OGL LOG][lduLduBase.H:330] 
Statistics:
	Time per iteration: 9957 [mu s]
	Time per residual norm calculation: 1269.000000 [mu s]
	Time per iteration and DOF: 0.789344 [ns]
	Retrieve results bandwidth 2.779000 [GByte/s]
[OGL LOG][Proc: 0]p: solve_multi_gpu: 1017.54 [ms]
MultigridcudaGKOCG:  Solving for p, Initial residual = 0.5716655294693906, Final residual = 0.0009788139512637818, No Iterations 67
time step continuity errors : sum local = 0.01154770677792352, global = -0.0004336449550508085, cumulative = 0.01697396979971116
[OGL LOG][Proc: 0]: global_index_init: 0.024 [ms]
[OGL LOG][Proc: 0]nuTilda_local_coeffs: call_update: 0 [ms]
[OGL LOG][Proc: 0]nuTilda_non_local_coeffs: call_update: 0 [ms]
[OGL LOG][Proc: 0]nuTilda: update_local_matrix_data: 36.392 [ms]
[OGL LOG][Proc: 0]nuTilda: update_non_local_matrix_data: 0.622 [ms]
[OGL LOG][Proc: 0]nuTilda_matrix: call_update: 2.505 [ms]
[OGL LOG][Proc: 0]nuTilda_rhs: call_update: 1.026 [ms]
[OGL LOG][Preconditioner.H:121] Generate preconditioner BJ MaxBlockSize 1
[OGL LOG][Proc: 0]nuTilda: init_precond: 1.921 [ms]
[OGL LOG][StoppingCriterion.H:239] Creating stopping criterion with minIter 2 frequency 1
[OGL LOG][Proc: 0]nuTilda: generate_solver: 0.017 [ms]
[OGL LOG][Proc: 0]nuTilda: solve: 65.97499999999999 [ms]
[OGL LOG][Proc: 0]nuTilda: copy_x_back: 2.386 [ms]
[OGL LOG][lduLduBase.H:330] 
Statistics:
	Time per iteration: 32987 [mu s]
	Time per residual norm calculation: 1271.000000 [mu s]
	Time per iteration and DOF: 2.615054 [ns]
	Retrieve results bandwidth 3.182000 [GByte/s]
[OGL LOG][Proc: 0]nuTilda: solve_multi_gpu: 81.61199999999999 [ms]
BJcudaGKOBiCGStab:  Solving for nuTilda, Initial residual = 0.1355582993455835, Final residual = 0.007905719360062857, No Iterations 2
ExecutionTime = 186.21 s  ClockTime = 187 s

Time = 5

velocityDampingConstraint velocityDamping damped 3558 (0.03%) of cells, with max limit 300
[OGL LOG][Proc: 0]: global_index_init: 0.054 [ms]
[OGL LOG][Proc: 0]Ux_local_coeffs: call_update: 0 [ms]
[OGL LOG][Proc: 0]Ux_non_local_coeffs: call_update: 0 [ms]
[OGL LOG][Proc: 0]Ux: update_local_matrix_data: 37.115 [ms]
[OGL LOG][Proc: 0]Ux: update_non_local_matrix_data: 0.573 [ms]
[OGL LOG][Proc: 0]Ux_matrix: call_update: 2.939 [ms]
[OGL LOG][Proc: 0]Ux_rhs: call_update: 0.874 [ms]
[OGL LOG][Preconditioner.H:121] Generate preconditioner BJ MaxBlockSize 1
[OGL LOG][Proc: 0]Ux: init_precond: 1.443 [ms]
[OGL LOG][StoppingCriterion.H:239] Creating stopping criterion with minIter 4 frequency 1
[OGL LOG][Proc: 0]Ux: generate_solver: 0.015 [ms]
[OGL LOG][Proc: 0]Ux: solve: 63.299 [ms]
[OGL LOG][Proc: 0]Ux: copy_x_back: 2.404 [ms]
[OGL LOG][lduLduBase.H:330] 
Statistics:
	Time per iteration: 31649 [mu s]
	Time per residual norm calculation: 1805.000000 [mu s]
	Time per iteration and DOF: 2.508983 [ns]
	Retrieve results bandwidth 3.158000 [GByte/s]
[OGL LOG][Proc: 0]Ux: solve_multi_gpu: 76.03400000000001 [ms]
BJcudaGKOBiCGStab:  Solving for Ux, Initial residual = 0.3432720185964565, Final residual = 0.02314173410693421, No Iterations 2
[OGL LOG][Proc: 0]: global_index_init: 0.051 [ms]
[OGL LOG][Proc: 0]Uy_local_coeffs: call_update: 0 [ms]
[OGL LOG][Proc: 0]Uy_non_local_coeffs: call_update: 0 [ms]
[OGL LOG][Proc: 0]Uy: update_local_matrix_data: 36.302 [ms]
[OGL LOG][Proc: 0]Uy: update_non_local_matrix_data: 0.544 [ms]
[OGL LOG][Proc: 0]Uy_matrix: call_update: 2.538 [ms]
[OGL LOG][Proc: 0]Uy_rhs: call_update: 1.266 [ms]
[OGL LOG][Preconditioner.H:121] Generate preconditioner BJ MaxBlockSize 1
[OGL LOG][Proc: 0]Uy: init_precond: 1.457 [ms]
[OGL LOG][StoppingCriterion.H:239] Creating stopping criterion with minIter 4 frequency 1
[OGL LOG][Proc: 0]Uy: generate_solver: 0.015 [ms]
[OGL LOG][Proc: 0]Uy: solve: 67.996 [ms]
[OGL LOG][Proc: 0]Uy: copy_x_back: 2.471 [ms]
[OGL LOG][lduLduBase.H:330] 
Statistics:
	Time per iteration: 22665 [mu s]
	Time per residual norm calculation: 1458.000000 [mu s]
	Time per iteration and DOF: 1.796774 [ns]
	Retrieve results bandwidth 3.072000 [GByte/s]
[OGL LOG][Proc: 0]Uy: solve_multi_gpu: 80.89 [ms]
BJcudaGKOBiCGStab:  Solving for Uy, Initial residual = 0.3592514261893844, Final residual = 0.03378336221136509, No Iterations 3
[OGL LOG][Proc: 0]: global_index_init: 0.045 [ms]
[OGL LOG][Proc: 0]Uz_local_coeffs: call_update: 0 [ms]
[OGL LOG][Proc: 0]Uz_non_local_coeffs: call_update: 0 [ms]
[OGL LOG][Proc: 0]Uz: update_local_matrix_data: 36.582 [ms]
[OGL LOG][Proc: 0]Uz: update_non_local_matrix_data: 0.5620000000000001 [ms]
[OGL LOG][Proc: 0]Uz_matrix: call_update: 2.741 [ms]
[OGL LOG][Proc: 0]Uz_rhs: call_update: 1.189 [ms]
[OGL LOG][Preconditioner.H:121] Generate preconditioner BJ MaxBlockSize 1
[OGL LOG][Proc: 0]Uz: init_precond: 1.456 [ms]
[OGL LOG][StoppingCriterion.H:239] Creating stopping criterion with minIter 3 frequency 1
[OGL LOG][Proc: 0]Uz: generate_solver: 0.014 [ms]
[OGL LOG][Proc: 0]Uz: solve: 75.39700000000001 [ms]
[OGL LOG][Proc: 0]Uz: copy_x_back: 2.43 [ms]
[OGL LOG][lduLduBase.H:330] 
Statistics:
	Time per iteration: 25132 [mu s]
	Time per residual norm calculation: 1775.000000 [mu s]
	Time per iteration and DOF: 1.992346 [ns]
	Retrieve results bandwidth 3.124000 [GByte/s]
[OGL LOG][Proc: 0]Uz: solve_multi_gpu: 89.03100000000001 [ms]
BJcudaGKOBiCGStab:  Solving for Uz, Initial residual = 0.5316143494394281, Final residual = 0.04366308606621078, No Iterations 3
[OGL LOG][Proc: 0]: global_index_init: 0.018 [ms]
[OGL LOG][Proc: 0]p_local_coeffs: call_update: 0 [ms]
[OGL LOG][Proc: 0]p_non_local_coeffs: call_update: 0 [ms]
[OGL LOG][Proc: 0]p: update_local_matrix_data: 30.945 [ms]
[OGL LOG][Proc: 0]p: update_non_local_matrix_data: 0.666 [ms]
[OGL LOG][Proc: 0]p_matrix: call_update: 1.618 [ms]
[OGL LOG][Proc: 0]p_rhs: call_update: 1.9 [ms]
[OGL LOG][Preconditioner.H:346] Generate preconditioner Multigrid MaxLevels 9 MinCoarseRows 10 ZeroGuess 1 Cycle v
[OGL LOG][Proc: 0]p: init_precond: 318.44 [ms]
[OGL LOG][StoppingCriterion.H:239] Creating stopping criterion with minIter 40 frequency 1
[OGL LOG][Proc: 0]p: generate_solver: 0.008999999999999999 [ms]
[OGL LOG][Proc: 0]p: solve: 1066.54 [ms]
[OGL LOG][Proc: 0]p: copy_x_back: 2.628 [ms]
[OGL LOG][lduLduBase.H:330] 
Statistics:
	Time per iteration: 10354 [mu s]
	Time per residual norm calculation: 1271.000000 [mu s]
	Time per iteration and DOF: 0.820816 [ns]
	Retrieve results bandwidth 2.889000 [GByte/s]
[OGL LOG][Proc: 0]p: solve_multi_gpu: 1415.938 [ms]
MultigridcudaGKOCG:  Solving for p, Initial residual = 0.4866858263021317, Final residual = 0.004847405245352303, No Iterations 103
time step continuity errors : sum local = 0.03663502765258809, global = -0.001160495643924467, cumulative = 0.01581347415578669
[OGL LOG][Proc: 0]: global_index_init: 0.03 [ms]
[OGL LOG][Proc: 0]nuTilda_local_coeffs: call_update: 0 [ms]
[OGL LOG][Proc: 0]nuTilda_non_local_coeffs: call_update: 0 [ms]
[OGL LOG][Proc: 0]nuTilda: update_local_matrix_data: 36.85 [ms]
[OGL LOG][Proc: 0]nuTilda: update_non_local_matrix_data: 0.582 [ms]
[OGL LOG][Proc: 0]nuTilda_matrix: call_update: 2.45 [ms]
[OGL LOG][Proc: 0]nuTilda_rhs: call_update: 0.991 [ms]
[OGL LOG][Preconditioner.H:121] Generate preconditioner BJ MaxBlockSize 1
[OGL LOG][Proc: 0]nuTilda: init_precond: 1.919 [ms]
[OGL LOG][StoppingCriterion.H:239] Creating stopping criterion with minIter 3 frequency 1
[OGL LOG][Proc: 0]nuTilda: generate_solver: 0.017 [ms]
[OGL LOG][Proc: 0]nuTilda: solve: 64.795 [ms]
[OGL LOG][Proc: 0]nuTilda: copy_x_back: 2.548 [ms]
[OGL LOG][lduLduBase.H:330] 
Statistics:
	Time per iteration: 32397 [mu s]
	Time per residual norm calculation: 1267.000000 [mu s]
	Time per iteration and DOF: 2.568281 [ns]
	Retrieve results bandwidth 2.979000 [GByte/s]
[OGL LOG][Proc: 0]nuTilda: solve_multi_gpu: 84.946 [ms]
BJcudaGKOBiCGStab:  Solving for nuTilda, Initial residual = 0.08895170772478476, Final residual = 0.004440166702638002, No Iterations 2
ExecutionTime = 191.45 s  ClockTime = 192 s

Time = 6

velocityDampingConstraint velocityDamping damped 403 (0%) of cells, with max limit 300
[OGL LOG][Proc: 0]: global_index_init: 0.05 [ms]
[OGL LOG][Proc: 0]Ux_local_coeffs: call_update: 0 [ms]
[OGL LOG][Proc: 0]Ux_non_local_coeffs: call_update: 0 [ms]
[OGL LOG][Proc: 0]Ux: update_local_matrix_data: 38.943 [ms]
[OGL LOG][Proc: 0]Ux: update_non_local_matrix_data: 0.63 [ms]
[OGL LOG][Proc: 0]Ux_matrix: call_update: 2.634 [ms]
[OGL LOG][Proc: 0]Ux_rhs: call_update: 0.907 [ms]
[OGL LOG][Preconditioner.H:121] Generate preconditioner BJ MaxBlockSize 1
[OGL LOG][Proc: 0]Ux: init_precond: 2.001 [ms]
[OGL LOG][StoppingCriterion.H:239] Creating stopping criterion with minIter 3 frequency 1
[OGL LOG][Proc: 0]Ux: generate_solver: 0.017 [ms]
[OGL LOG][Proc: 0]Ux: solve: 76.61199999999999 [ms]
[OGL LOG][Proc: 0]Ux: copy_x_back: 2.455 [ms]
[OGL LOG][lduLduBase.H:330] 
Statistics:
	Time per iteration: 25537 [mu s]
	Time per residual norm calculation: 1801.000000 [mu s]
	Time per iteration and DOF: 2.024453 [ns]
	Retrieve results bandwidth 3.092000 [GByte/s]
[OGL LOG][Proc: 0]Ux: solve_multi_gpu: 89.15000000000001 [ms]
BJcudaGKOBiCGStab:  Solving for Ux, Initial residual = 0.1604926998820292, Final residual = 0.009333302601797697, No Iterations 3
[OGL LOG][Proc: 0]: global_index_init: 0.197 [ms]
[OGL LOG][Proc: 0]Uy_local_coeffs: call_update: 0 [ms]
[OGL LOG][Proc: 0]Uy_non_local_coeffs: call_update: 0 [ms]
[OGL LOG][Proc: 0]Uy: update_local_matrix_data: 37.383 [ms]
[OGL LOG][Proc: 0]Uy: update_non_local_matrix_data: 0.589 [ms]
[OGL LOG][Proc: 0]Uy_matrix: call_update: 2.658 [ms]
[OGL LOG][Proc: 0]Uy_rhs: call_update: 0.9350000000000001 [ms]
[OGL LOG][Preconditioner.H:121] Generate preconditioner BJ MaxBlockSize 1
[OGL LOG][Proc: 0]Uy: init_precond: 1.441 [ms]
[OGL LOG][StoppingCriterion.H:239] Creating stopping criterion with minIter 3 frequency 1
[OGL LOG][Proc: 0]Uy: generate_solver: 0.014 [ms]
[OGL LOG][Proc: 0]Uy: solve: 80.649 [ms]
[OGL LOG][Proc: 0]Uy: copy_x_back: 2.412 [ms]
[OGL LOG][lduLduBase.H:330] 
Statistics:
	Time per iteration: 20162 [mu s]
	Time per residual norm calculation: 1808.000000 [mu s]
	Time per iteration and DOF: 1.598348 [ns]
	Retrieve results bandwidth 3.147000 [GByte/s]
[OGL LOG][Proc: 0]Uy: solve_multi_gpu: 94.11199999999999 [ms]
BJcudaGKOBiCGStab:  Solving for Uy, Initial residual = 0.228389826649334, Final residual = 0.01087057326001765, No Iterations 4
[OGL LOG][Proc: 0]: global_index_init: 0.045 [ms]
[OGL LOG][Proc: 0]Uz_local_coeffs: call_update: 0 [ms]
[OGL LOG][Proc: 0]Uz_non_local_coeffs: call_update: 0 [ms]
[OGL LOG][Proc: 0]Uz: update_local_matrix_data: 36.146 [ms]
[OGL LOG][Proc: 0]Uz: update_non_local_matrix_data: 0.552 [ms]
[OGL LOG][Proc: 0]Uz_matrix: call_update: 2.459 [ms]
[OGL LOG][Proc: 0]Uz_rhs: call_update: 1.033 [ms]
[OGL LOG][Preconditioner.H:121] Generate preconditioner BJ MaxBlockSize 1
[OGL LOG][Proc: 0]Uz: init_precond: 1.796 [ms]
[OGL LOG][StoppingCriterion.H:239] Creating stopping criterion with minIter 4 frequency 1
[OGL LOG][Proc: 0]Uz: generate_solver: 0.015 [ms]
[OGL LOG][Proc: 0]Uz: solve: 70.499 [ms]
[OGL LOG][Proc: 0]Uz: copy_x_back: 2.475 [ms]
[OGL LOG][lduLduBase.H:330] 
Statistics:
	Time per iteration: 23499 [mu s]
	Time per residual norm calculation: 1405.000000 [mu s]
	Time per iteration and DOF: 1.862890 [ns]
	Retrieve results bandwidth 3.067000 [GByte/s]
[OGL LOG][Proc: 0]Uz: solve_multi_gpu: 85.20999999999999 [ms]
BJcudaGKOBiCGStab:  Solving for Uz, Initial residual = 0.2821270872636866, Final residual = 0.0224432743320744, No Iterations 3
[OGL LOG][Proc: 0]: global_index_init: 0.08 [ms]
[OGL LOG][Proc: 0]p_local_coeffs: call_update: 0 [ms]
[OGL LOG][Proc: 0]p_non_local_coeffs: call_update: 0.004 [ms]
[OGL LOG][Proc: 0]p: update_local_matrix_data: 30.688 [ms]
[OGL LOG][Proc: 0]p: update_non_local_matrix_data: 0.633 [ms]
[OGL LOG][Proc: 0]p_matrix: call_update: 2.427 [ms]
[OGL LOG][Proc: 0]p_rhs: call_update: 1.016 [ms]
[OGL LOG][Preconditioner.H:346] Generate preconditioner Multigrid MaxLevels 9 MinCoarseRows 10 ZeroGuess 1 Cycle v
[OGL LOG][Proc: 0]p: init_precond: 307.713 [ms]
[OGL LOG][StoppingCriterion.H:239] Creating stopping criterion with minIter 61 frequency 2
[OGL LOG][Proc: 0]p: generate_solver: 0.008999999999999999 [ms]
[OGL LOG][Proc: 0]p: solve: 1007.124 [ms]
[OGL LOG][Proc: 0]p: copy_x_back: 2.808 [ms]
[OGL LOG][lduLduBase.H:330] 
Statistics:
	Time per iteration: 9777 [mu s]
	Time per residual norm calculation: 1264.000000 [mu s]
	Time per iteration and DOF: 0.775074 [ns]
	Retrieve results bandwidth 2.703000 [GByte/s]
[OGL LOG][Proc: 0]p: solve_multi_gpu: 1345.878 [ms]
MultigridcudaGKOCG:  Solving for p, Initial residual = 0.5897656862929566, Final residual = 0.005074179084708029, No Iterations 103
time step continuity errors : sum local = 0.03358358119347289, global = -0.00109599321757006, cumulative = 0.01471748093821663
[OGL LOG][Proc: 0]: global_index_init: 0.022 [ms]
[OGL LOG][Proc: 0]nuTilda_local_coeffs: call_update: 0 [ms]
[OGL LOG][Proc: 0]nuTilda_non_local_coeffs: call_update: 0 [ms]
[OGL LOG][Proc: 0]nuTilda: update_local_matrix_data: 36.382 [ms]
[OGL LOG][Proc: 0]nuTilda: update_non_local_matrix_data: 0.644 [ms]
[OGL LOG][Proc: 0]nuTilda_matrix: call_update: 2.47 [ms]
[OGL LOG][Proc: 0]nuTilda_rhs: call_update: 0.867 [ms]
[OGL LOG][Preconditioner.H:121] Generate preconditioner BJ MaxBlockSize 1
[OGL LOG][Proc: 0]nuTilda: init_precond: 1.894 [ms]
[OGL LOG][StoppingCriterion.H:239] Creating stopping criterion with minIter 3 frequency 1
[OGL LOG][Proc: 0]nuTilda: generate_solver: 0.022 [ms]
[OGL LOG][Proc: 0]nuTilda: solve: 64.17700000000001 [ms]
[OGL LOG][Proc: 0]nuTilda: copy_x_back: 2.487 [ms]
[OGL LOG][lduLduBase.H:330] 
Statistics:
	Time per iteration: 32088 [mu s]
	Time per residual norm calculation: 1273.000000 [mu s]
	Time per iteration and DOF: 2.543785 [ns]
	Retrieve results bandwidth 3.052000 [GByte/s]
[OGL LOG][Proc: 0]nuTilda: solve_multi_gpu: 78.13500000000001 [ms]
BJcudaGKOBiCGStab:  Solving for nuTilda, Initial residual = 0.06193787431991362, Final residual = 0.003426950010471605, No Iterations 2
ExecutionTime = 196.65 s  ClockTime = 198 s

Time = 7

velocityDampingConstraint velocityDamping damped 1895 (0.02%) of cells, with max limit 300
[OGL LOG][Proc: 0]: global_index_init: 0.048 [ms]
[OGL LOG][Proc: 0]Ux_local_coeffs: call_update: 0 [ms]
[OGL LOG][Proc: 0]Ux_non_local_coeffs: call_update: 0 [ms]
[OGL LOG][Proc: 0]Ux: update_local_matrix_data: 38.99 [ms]
[OGL LOG][Proc: 0]Ux: update_non_local_matrix_data: 0.54 [ms]
[OGL LOG][Proc: 0]Ux_matrix: call_update: 2.809 [ms]
[OGL LOG][Proc: 0]Ux_rhs: call_update: 0.913 [ms]
[OGL LOG][Preconditioner.H:121] Generate preconditioner BJ MaxBlockSize 1
[OGL LOG][Proc: 0]Ux: init_precond: 2.017 [ms]
[OGL LOG][StoppingCriterion.H:239] Creating stopping criterion with minIter 4 frequency 1
[OGL LOG][Proc: 0]Ux: generate_solver: 0.019 [ms]
[OGL LOG][Proc: 0]Ux: solve: 68.098 [ms]
[OGL LOG][Proc: 0]Ux: copy_x_back: 2.456 [ms]
[OGL LOG][lduLduBase.H:330] 
Statistics:
	Time per iteration: 22699 [mu s]
	Time per residual norm calculation: 1643.000000 [mu s]
	Time per iteration and DOF: 1.799470 [ns]
	Retrieve results bandwidth 3.091000 [GByte/s]
[OGL LOG][Proc: 0]Ux: solve_multi_gpu: 80.598 [ms]
BJcudaGKOBiCGStab:  Solving for Ux, Initial residual = 0.1989115491499768, Final residual = 0.018188773104711, No Iterations 3
[OGL LOG][Proc: 0]: global_index_init: 0.052 [ms]
[OGL LOG][Proc: 0]Uy_local_coeffs: call_update: 0 [ms]
[OGL LOG][Proc: 0]Uy_non_local_coeffs: call_update: 0 [ms]
[OGL LOG][Proc: 0]Uy: update_local_matrix_data: 36.878 [ms]
[OGL LOG][Proc: 0]Uy: update_non_local_matrix_data: 0.5649999999999999 [ms]
[OGL LOG][Proc: 0]Uy_matrix: call_update: 2.928 [ms]
[OGL LOG][Proc: 0]Uy_rhs: call_update: 0.92 [ms]
[OGL LOG][Preconditioner.H:121] Generate preconditioner BJ MaxBlockSize 1
[OGL LOG][Proc: 0]Uy: init_precond: 1.474 [ms]
[OGL LOG][StoppingCriterion.H:239] Creating stopping criterion with minIter 4 frequency 1
[OGL LOG][Proc: 0]Uy: generate_solver: 0.014 [ms]
[OGL LOG][Proc: 0]Uy: solve: 73.67400000000001 [ms]
[OGL LOG][Proc: 0]Uy: copy_x_back: 2.338 [ms]
[OGL LOG][lduLduBase.H:330] 
Statistics:
	Time per iteration: 24558 [mu s]
	Time per residual norm calculation: 1616.000000 [mu s]
	Time per iteration and DOF: 1.946842 [ns]
	Retrieve results bandwidth 3.247000 [GByte/s]
[OGL LOG][Proc: 0]Uy: solve_multi_gpu: 85.84699999999999 [ms]
BJcudaGKOBiCGStab:  Solving for Uy, Initial residual = 0.2042956862034935, Final residual = 0.0153637294085087, No Iterations 3
[OGL LOG][Proc: 0]: global_index_init: 0.048 [ms]
[OGL LOG][Proc: 0]Uz_local_coeffs: call_update: 0 [ms]
[OGL LOG][Proc: 0]Uz_non_local_coeffs: call_update: 0 [ms]
[OGL LOG][Proc: 0]Uz: update_local_matrix_data: 37.11 [ms]
[OGL LOG][Proc: 0]Uz: update_non_local_matrix_data: 0.5580000000000001 [ms]
[OGL LOG][Proc: 0]Uz_matrix: call_update: 2.791 [ms]
[OGL LOG][Proc: 0]Uz_rhs: call_update: 1.297 [ms]
[OGL LOG][Preconditioner.H:121] Generate preconditioner BJ MaxBlockSize 1
[OGL LOG][Proc: 0]Uz: init_precond: 1.451 [ms]
[OGL LOG][StoppingCriterion.H:239] Creating stopping criterion with minIter 4 frequency 1
[OGL LOG][Proc: 0]Uz: generate_solver: 0.015 [ms]
[OGL LOG][Proc: 0]Uz: solve: 77.483 [ms]
[OGL LOG][Proc: 0]Uz: copy_x_back: 2.47 [ms]
[OGL LOG][lduLduBase.H:330] 
Statistics:
	Time per iteration: 19370 [mu s]
	Time per residual norm calculation: 1235.000000 [mu s]
	Time per iteration and DOF: 1.535562 [ns]
	Retrieve results bandwidth 3.073000 [GByte/s]
[OGL LOG][Proc: 0]Uz: solve_multi_gpu: 88.574 [ms]
BJcudaGKOBiCGStab:  Solving for Uz, Initial residual = 0.2200111600424901, Final residual = 0.01931311601968995, No Iterations 4
[OGL LOG][Proc: 0]: global_index_init: 0.02 [ms]
[OGL LOG][Proc: 0]p_local_coeffs: call_update: 0 [ms]
[OGL LOG][Proc: 0]p_non_local_coeffs: call_update: 0 [ms]
[OGL LOG][Proc: 0]p: update_local_matrix_data: 30.183 [ms]
[OGL LOG][Proc: 0]p: update_non_local_matrix_data: 0.5669999999999999 [ms]
[OGL LOG][Proc: 0]p_matrix: call_update: 2.543 [ms]
[OGL LOG][Proc: 0]p_rhs: call_update: 0.913 [ms]
[OGL LOG][Preconditioner.H:346] Generate preconditioner Multigrid MaxLevels 9 MinCoarseRows 10 ZeroGuess 1 Cycle v
[OGL LOG][Proc: 0]p: init_precond: 337.799 [ms]
[OGL LOG][StoppingCriterion.H:239] Creating stopping criterion with minIter 61 frequency 2
[OGL LOG][Proc: 0]p: generate_solver: 0.008999999999999999 [ms]
[OGL LOG][Proc: 0]p: solve: 598.9690000000001 [ms]
[OGL LOG][Proc: 0]p: copy_x_back: 2.789 [ms]
[OGL LOG][lduLduBase.H:330] 
Statistics:
	Time per iteration: 9507 [mu s]
	Time per residual norm calculation: 1269.000000 [mu s]
	Time per iteration and DOF: 0.753670 [ns]
	Retrieve results bandwidth 2.722000 [GByte/s]
[OGL LOG][Proc: 0]p: solve_multi_gpu: 969.367 [ms]
MultigridcudaGKOCG:  Solving for p, Initial residual = 0.4048262824759117, Final residual = 0.002489315026480466, No Iterations 63
time step continuity errors : sum local = 0.01387357364132619, global = 0.001864533686341379, cumulative = 0.01658201462455801
[OGL LOG][Proc: 0]: global_index_init: 0.024 [ms]
[OGL LOG][Proc: 0]nuTilda_local_coeffs: call_update: 0 [ms]
[OGL LOG][Proc: 0]nuTilda_non_local_coeffs: call_update: 0 [ms]
[OGL LOG][Proc: 0]nuTilda: update_local_matrix_data: 37.933 [ms]
[OGL LOG][Proc: 0]nuTilda: update_non_local_matrix_data: 0.607 [ms]
[OGL LOG][Proc: 0]nuTilda_matrix: call_update: 2.451 [ms]
[OGL LOG][Proc: 0]nuTilda_rhs: call_update: 0.999 [ms]
[OGL LOG][Preconditioner.H:121] Generate preconditioner BJ MaxBlockSize 1
[OGL LOG][Proc: 0]nuTilda: init_precond: 1.896 [ms]
[OGL LOG][StoppingCriterion.H:239] Creating stopping criterion with minIter 3 frequency 1
[OGL LOG][Proc: 0]nuTilda: generate_solver: 0.017 [ms]
[OGL LOG][Proc: 0]nuTilda: solve: 64.37 [ms]
[OGL LOG][Proc: 0]nuTilda: copy_x_back: 2.459 [ms]
[OGL LOG][lduLduBase.H:330] 
Statistics:
	Time per iteration: 32185 [mu s]
	Time per residual norm calculation: 1271.000000 [mu s]
	Time per iteration and DOF: 2.551475 [ns]
	Retrieve results bandwidth 3.087000 [GByte/s]
[OGL LOG][Proc: 0]nuTilda: solve_multi_gpu: 79.953 [ms]
BJcudaGKOBiCGStab:  Solving for nuTilda, Initial residual = 0.05035128105572169, Final residual = 0.002875655266406234, No Iterations 2
ExecutionTime = 201.44 s  ClockTime = 202 s

Time = 8

velocityDampingConstraint velocityDamping damped 879 (0.01%) of cells, with max limit 300
[OGL LOG][Proc: 0]: global_index_init: 0.095 [ms]
[OGL LOG][Proc: 0]Ux_local_coeffs: call_update: 0 [ms]
[OGL LOG][Proc: 0]Ux_non_local_coeffs: call_update: 0 [ms]
[OGL LOG][Proc: 0]Ux: update_local_matrix_data: 39.277 [ms]
[OGL LOG][Proc: 0]Ux: update_non_local_matrix_data: 0.511 [ms]
[OGL LOG][Proc: 0]Ux_matrix: call_update: 2.584 [ms]
[OGL LOG][Proc: 0]Ux_rhs: call_update: 5.862 [ms]
[OGL LOG][Preconditioner.H:121] Generate preconditioner BJ MaxBlockSize 1
[OGL LOG][Proc: 0]Ux: init_precond: 1.479 [ms]
[OGL LOG][StoppingCriterion.H:239] Creating stopping criterion with minIter 3 frequency 1
[OGL LOG][Proc: 0]Ux: generate_solver: 0.021 [ms]
[OGL LOG][Proc: 0]Ux: solve: 99.569 [ms]
[OGL LOG][Proc: 0]Ux: copy_x_back: 2.455 [ms]
[OGL LOG][lduLduBase.H:330] 
Statistics:
	Time per iteration: 33189 [mu s]
	Time per residual norm calculation: 1813.000000 [mu s]
	Time per iteration and DOF: 2.631067 [ns]
	Retrieve results bandwidth 3.092000 [GByte/s]
[OGL LOG][Proc: 0]Ux: solve_multi_gpu: 118.471 [ms]
BJcudaGKOBiCGStab:  Solving for Ux, Initial residual = 0.1784140107772061, Final residual = 0.01029206904679038, No Iterations 3
[OGL LOG][Proc: 0]: global_index_init: 4.46 [ms]
[OGL LOG][Proc: 0]Uy_local_coeffs: call_update: 0 [ms]
[OGL LOG][Proc: 0]Uy_non_local_coeffs: call_update: 0 [ms]
[OGL LOG][Proc: 0]Uy: update_local_matrix_data: 37.466 [ms]
[OGL LOG][Proc: 0]Uy: update_non_local_matrix_data: 0.55 [ms]
[OGL LOG][Proc: 0]Uy_matrix: call_update: 2.627 [ms]
[OGL LOG][Proc: 0]Uy_rhs: call_update: 5.136 [ms]
[OGL LOG][Preconditioner.H:121] Generate preconditioner BJ MaxBlockSize 1
[OGL LOG][Proc: 0]Uy: init_precond: 1.499 [ms]
[OGL LOG][StoppingCriterion.H:239] Creating stopping criterion with minIter 4 frequency 1
[OGL LOG][Proc: 0]Uy: generate_solver: 0.013 [ms]
[OGL LOG][Proc: 0]Uy: solve: 119.786 [ms]
[OGL LOG][Proc: 0]Uy: copy_x_back: 2.446 [ms]
[OGL LOG][lduLduBase.H:330] 
Statistics:
	Time per iteration: 39928 [mu s]
	Time per residual norm calculation: 1835.000000 [mu s]
	Time per iteration and DOF: 3.165304 [ns]
	Retrieve results bandwidth 3.104000 [GByte/s]
[OGL LOG][Proc: 0]Uy: solve_multi_gpu: 154.33 [ms]
BJcudaGKOBiCGStab:  Solving for Uy, Initial residual = 0.2120818149724184, Final residual = 0.02004709992144827, No Iterations 3
[OGL LOG][Proc: 0]: global_index_init: 3.085 [ms]
[OGL LOG][Proc: 0]Uz_local_coeffs: call_update: 0 [ms]
[OGL LOG][Proc: 0]Uz_non_local_coeffs: call_update: 0 [ms]
[OGL LOG][Proc: 0]Uz: update_local_matrix_data: 36.755 [ms]
[OGL LOG][Proc: 0]Uz: update_non_local_matrix_data: 0.545 [ms]
[OGL LOG][Proc: 0]Uz_matrix: call_update: 2.54 [ms]
[OGL LOG][Proc: 0]Uz_rhs: call_update: 3.22 [ms]
[OGL LOG][Preconditioner.H:121] Generate preconditioner BJ MaxBlockSize 1
[OGL LOG][Proc: 0]Uz: init_precond: 1.515 [ms]
[OGL LOG][StoppingCriterion.H:239] Creating stopping criterion with minIter 4 frequency 1
[OGL LOG][Proc: 0]Uz: generate_solver: 0.013 [ms]
[OGL LOG][Proc: 0]Uz: solve: 103.056 [ms]
[OGL LOG][Proc: 0]Uz: copy_x_back: 2.561 [ms]
[OGL LOG][lduLduBase.H:330] 
Statistics:
	Time per iteration: 25764 [mu s]
	Time per residual norm calculation: 1795.000000 [mu s]
	Time per iteration and DOF: 2.042448 [ns]
	Retrieve results bandwidth 2.964000 [GByte/s]
[OGL LOG][Proc: 0]Uz: solve_multi_gpu: 125.316 [ms]
BJcudaGKOBiCGStab:  Solving for Uz, Initial residual = 0.2177549815239197, Final residual = 0.01863821486502601, No Iterations 4
[OGL LOG][Proc: 0]: global_index_init: 0.018 [ms]
[OGL LOG][Proc: 0]p_local_coeffs: call_update: 0 [ms]
[OGL LOG][Proc: 0]p_non_local_coeffs: call_update: 0 [ms]
[OGL LOG][Proc: 0]p: update_local_matrix_data: 31.231 [ms]
[OGL LOG][Proc: 0]p: update_non_local_matrix_data: 0.586 [ms]
[OGL LOG][Proc: 0]p_matrix: call_update: 1.67 [ms]
[OGL LOG][Proc: 0]p_rhs: call_update: 1.662 [ms]
[OGL LOG][Preconditioner.H:346] Generate preconditioner Multigrid MaxLevels 9 MinCoarseRows 10 ZeroGuess 1 Cycle v
[OGL LOG][Proc: 0]p: init_precond: 333.74 [ms]
[OGL LOG][StoppingCriterion.H:239] Creating stopping criterion with minIter 37 frequency 1
[OGL LOG][Proc: 0]p: generate_solver: 0.008999999999999999 [ms]
[OGL LOG][Proc: 0]p: solve: 1059.61 [ms]
[OGL LOG][Proc: 0]p: copy_x_back: 2.696 [ms]
[OGL LOG][lduLduBase.H:330] 
Statistics:
	Time per iteration: 10091 [mu s]
	Time per residual norm calculation: 1271.000000 [mu s]
	Time per iteration and DOF: 0.799967 [ns]
	Retrieve results bandwidth 2.816000 [GByte/s]
[OGL LOG][Proc: 0]p: solve_multi_gpu: 1424.391 [ms]
MultigridcudaGKOCG:  Solving for p, Initial residual = 0.4647959964046169, Final residual = 0.004437565929513835, No Iterations 105
time step continuity errors : sum local = 0.020888558816913, global = 0.0005510364418623919, cumulative = 0.0171330510664204
[OGL LOG][Proc: 0]: global_index_init: 0.999 [ms]
[OGL LOG][Proc: 0]nuTilda_local_coeffs: call_update: 0 [ms]
[OGL LOG][Proc: 0]nuTilda_non_local_coeffs: call_update: 0 [ms]
[OGL LOG][Proc: 0]nuTilda: update_local_matrix_data: 44.973 [ms]
[OGL LOG][Proc: 0]nuTilda: update_non_local_matrix_data: 0.5659999999999999 [ms]
[OGL LOG][Proc: 0]nuTilda_matrix: call_update: 3.747 [ms]
[OGL LOG][Proc: 0]nuTilda_rhs: call_update: 3.185 [ms]
[OGL LOG][Preconditioner.H:121] Generate preconditioner BJ MaxBlockSize 1
[OGL LOG][Proc: 0]nuTilda: init_precond: 5.734 [ms]
[OGL LOG][StoppingCriterion.H:239] Creating stopping criterion with minIter 3 frequency 1
[OGL LOG][Proc: 0]nuTilda: generate_solver: 0.016 [ms]
[OGL LOG][Proc: 0]nuTilda: solve: 61.752 [ms]
[OGL LOG][Proc: 0]nuTilda: copy_x_back: 2.531 [ms]
[OGL LOG][lduLduBase.H:330] 
Statistics:
	Time per iteration: 30876 [mu s]
	Time per residual norm calculation: 1265.000000 [mu s]
	Time per iteration and DOF: 2.447704 [ns]
	Retrieve results bandwidth 2.999000 [GByte/s]
[OGL LOG][Proc: 0]nuTilda: solve_multi_gpu: 81.249 [ms]
BJcudaGKOBiCGStab:  Solving for nuTilda, Initial residual = 0.03954371655397271, Final residual = 0.001973812974468755, No Iterations 2
ExecutionTime = 206.86 s  ClockTime = 208 s

Time = 9

velocityDampingConstraint velocityDamping damped 109 (0%) of cells, with max limit 300
[OGL LOG][Proc: 0]: global_index_init: 0.056 [ms]
[OGL LOG][Proc: 0]Ux_local_coeffs: call_update: 0 [ms]
[OGL LOG][Proc: 0]Ux_non_local_coeffs: call_update: 0 [ms]
[OGL LOG][Proc: 0]Ux: update_local_matrix_data: 38.916 [ms]
[OGL LOG][Proc: 0]Ux: update_non_local_matrix_data: 0.642 [ms]
[OGL LOG][Proc: 0]Ux_matrix: call_update: 2.697 [ms]
[OGL LOG][Proc: 0]Ux_rhs: call_update: 0.9350000000000001 [ms]
[OGL LOG][Preconditioner.H:121] Generate preconditioner BJ MaxBlockSize 1
[OGL LOG][Proc: 0]Ux: init_precond: 1.951 [ms]
[OGL LOG][StoppingCriterion.H:239] Creating stopping criterion with minIter 4 frequency 1
[OGL LOG][Proc: 0]Ux: generate_solver: 0.02 [ms]
[OGL LOG][Proc: 0]Ux: solve: 75.161 [ms]
[OGL LOG][Proc: 0]Ux: copy_x_back: 2.411 [ms]
[OGL LOG][lduLduBase.H:330] 
Statistics:
	Time per iteration: 25053 [mu s]
	Time per residual norm calculation: 1611.000000 [mu s]
	Time per iteration and DOF: 1.986084 [ns]
	Retrieve results bandwidth 3.149000 [GByte/s]
[OGL LOG][Proc: 0]Ux: solve_multi_gpu: 88.116 [ms]
BJcudaGKOBiCGStab:  Solving for Ux, Initial residual = 0.05654021274736602, Final residual = 0.003523925915007194, No Iterations 3
[OGL LOG][Proc: 0]: global_index_init: 0.053 [ms]
[OGL LOG][Proc: 0]Uy_local_coeffs: call_update: 0 [ms]
[OGL LOG][Proc: 0]Uy_non_local_coeffs: call_update: 0 [ms]
[OGL LOG][Proc: 0]Uy: update_local_matrix_data: 37.053 [ms]
[OGL LOG][Proc: 0]Uy: update_non_local_matrix_data: 0.613 [ms]
[OGL LOG][Proc: 0]Uy_matrix: call_update: 2.626 [ms]
[OGL LOG][Proc: 0]Uy_rhs: call_update: 0.951 [ms]
[OGL LOG][Preconditioner.H:121] Generate preconditioner BJ MaxBlockSize 1
[OGL LOG][Proc: 0]Uy: init_precond: 1.383 [ms]
[OGL LOG][StoppingCriterion.H:239] Creating stopping criterion with minIter 3 frequency 1
[OGL LOG][Proc: 0]Uy: generate_solver: 0.018 [ms]
[OGL LOG][Proc: 0]Uy: solve: 75.16500000000001 [ms]
[OGL LOG][Proc: 0]Uy: copy_x_back: 2.492 [ms]
[OGL LOG][lduLduBase.H:330] 
Statistics:
	Time per iteration: 25055 [mu s]
	Time per residual norm calculation: 1568.000000 [mu s]
	Time per iteration and DOF: 1.986242 [ns]
	Retrieve results bandwidth 3.046000 [GByte/s]
[OGL LOG][Proc: 0]Uy: solve_multi_gpu: 88.94499999999999 [ms]
BJcudaGKOBiCGStab:  Solving for Uy, Initial residual = 0.09713628009002043, Final residual = 0.006938348789774719, No Iterations 3
[OGL LOG][Proc: 0]: global_index_init: 0.038 [ms]
[OGL LOG][Proc: 0]Uz_local_coeffs: call_update: 0 [ms]
[OGL LOG][Proc: 0]Uz_non_local_coeffs: call_update: 0 [ms]
[OGL LOG][Proc: 0]Uz: update_local_matrix_data: 38.529 [ms]
[OGL LOG][Proc: 0]Uz: update_non_local_matrix_data: 0.589 [ms]
[OGL LOG][Proc: 0]Uz_matrix: call_update: 2.471 [ms]
[OGL LOG][Proc: 0]Uz_rhs: call_update: 0.948 [ms]
[OGL LOG][Preconditioner.H:121] Generate preconditioner BJ MaxBlockSize 1
[OGL LOG][Proc: 0]Uz: init_precond: 1.41 [ms]
[OGL LOG][StoppingCriterion.H:239] Creating stopping criterion with minIter 5 frequency 1
[OGL LOG][Proc: 0]Uz: generate_solver: 0.015 [ms]
[OGL LOG][Proc: 0]Uz: solve: 74.77500000000001 [ms]
[OGL LOG][Proc: 0]Uz: copy_x_back: 2.402 [ms]
[OGL LOG][lduLduBase.H:330] 
Statistics:
	Time per iteration: 18693 [mu s]
	Time per residual norm calculation: 1568.000000 [mu s]
	Time per iteration and DOF: 1.481893 [ns]
	Retrieve results bandwidth 3.160000 [GByte/s]
[OGL LOG][Proc: 0]Uz: solve_multi_gpu: 86.495 [ms]
BJcudaGKOBiCGStab:  Solving for Uz, Initial residual = 0.1016336111355959, Final residual = 0.005794101180477519, No Iterations 4
[OGL LOG][Proc: 0]: global_index_init: 0.082 [ms]
[OGL LOG][Proc: 0]p_local_coeffs: call_update: 0 [ms]
[OGL LOG][Proc: 0]p_non_local_coeffs: call_update: 0 [ms]
[OGL LOG][Proc: 0]p: update_local_matrix_data: 30.485 [ms]
[OGL LOG][Proc: 0]p: update_non_local_matrix_data: 0.551 [ms]
[OGL LOG][Proc: 0]p_matrix: call_update: 1.966 [ms]
[OGL LOG][Proc: 0]p_rhs: call_update: 1.288 [ms]
[OGL LOG][Preconditioner.H:346] Generate preconditioner Multigrid MaxLevels 9 MinCoarseRows 10 ZeroGuess 1 Cycle v
[OGL LOG][Proc: 0]p: init_precond: 305.632 [ms]
[OGL LOG][StoppingCriterion.H:239] Creating stopping criterion with minIter 63 frequency 2
[OGL LOG][Proc: 0]p: generate_solver: 0.008999999999999999 [ms]
[OGL LOG][Proc: 0]p: solve: 938.576 [ms]
[OGL LOG][Proc: 0]p: copy_x_back: 2.756 [ms]
[OGL LOG][lduLduBase.H:330] 
Statistics:
	Time per iteration: 9676 [mu s]
	Time per residual norm calculation: 968.000000 [mu s]
	Time per iteration and DOF: 0.767068 [ns]
	Retrieve results bandwidth 2.754000 [GByte/s]
[OGL LOG][Proc: 0]p: solve_multi_gpu: 1274.82 [ms]
MultigridcudaGKOCG:  Solving for p, Initial residual = 0.4197918976823618, Final residual = 0.004066791517694133, No Iterations 97
time step continuity errors : sum local = 0.02883719457702245, global = 0.001536782185945262, cumulative = 0.01866983325236567
[OGL LOG][Proc: 0]: global_index_init: 0.023 [ms]
[OGL LOG][Proc: 0]nuTilda_local_coeffs: call_update: 0 [ms]
[OGL LOG][Proc: 0]nuTilda_non_local_coeffs: call_update: 0 [ms]
[OGL LOG][Proc: 0]nuTilda: update_local_matrix_data: 36.18 [ms]
[OGL LOG][Proc: 0]nuTilda: update_non_local_matrix_data: 0.5649999999999999 [ms]
[OGL LOG][Proc: 0]nuTilda_matrix: call_update: 2.253 [ms]
[OGL LOG][Proc: 0]nuTilda_rhs: call_update: 1.059 [ms]
[OGL LOG][Preconditioner.H:121] Generate preconditioner BJ MaxBlockSize 1
[OGL LOG][Proc: 0]nuTilda: init_precond: 1.775 [ms]
[OGL LOG][StoppingCriterion.H:239] Creating stopping criterion with minIter 3 frequency 1
[OGL LOG][Proc: 0]nuTilda: generate_solver: 0.024 [ms]
[OGL LOG][Proc: 0]nuTilda: solve: 64.66200000000001 [ms]
[OGL LOG][Proc: 0]nuTilda: copy_x_back: 2.504 [ms]
[OGL LOG][lduLduBase.H:330] 
Statistics:
	Time per iteration: 32331 [mu s]
	Time per residual norm calculation: 1273.000000 [mu s]
	Time per iteration and DOF: 2.563049 [ns]
	Retrieve results bandwidth 3.032000 [GByte/s]
[OGL LOG][Proc: 0]nuTilda: solve_multi_gpu: 82.88200000000001 [ms]
BJcudaGKOBiCGStab:  Solving for nuTilda, Initial residual = 0.03483774389789493, Final residual = 0.002051081204663509, No Iterations 2
ExecutionTime = 211.94 s  ClockTime = 213 s

Time = 10

velocityDampingConstraint velocityDamping damped 559 (0%) of cells, with max limit 300
[OGL LOG][Proc: 0]: global_index_init: 0.051 [ms]
[OGL LOG][Proc: 0]Ux_local_coeffs: call_update: 0 [ms]
[OGL LOG][Proc: 0]Ux_non_local_coeffs: call_update: 0 [ms]
[OGL LOG][Proc: 0]Ux: update_local_matrix_data: 37.088 [ms]
[OGL LOG][Proc: 0]Ux: update_non_local_matrix_data: 0.551 [ms]
[OGL LOG][Proc: 0]Ux_matrix: call_update: 2.601 [ms]
[OGL LOG][Proc: 0]Ux_rhs: call_update: 0.961 [ms]
[OGL LOG][Preconditioner.H:121] Generate preconditioner BJ MaxBlockSize 1
[OGL LOG][Proc: 0]Ux: init_precond: 1.456 [ms]
[OGL LOG][StoppingCriterion.H:239] Creating stopping criterion with minIter 4 frequency 1
[OGL LOG][Proc: 0]Ux: generate_solver: 0.015 [ms]
[OGL LOG][Proc: 0]Ux: solve: 74.574 [ms]
[OGL LOG][Proc: 0]Ux: copy_x_back: 2.504 [ms]
[OGL LOG][lduLduBase.H:330] 
Statistics:
	Time per iteration: 24858 [mu s]
	Time per residual norm calculation: 1807.000000 [mu s]
	Time per iteration and DOF: 1.970625 [ns]
	Retrieve results bandwidth 3.032000 [GByte/s]
[OGL LOG][Proc: 0]Ux: solve_multi_gpu: 89.34099999999999 [ms]
BJcudaGKOBiCGStab:  Solving for Ux, Initial residual = 0.04087814827162808, Final residual = 0.002676996916176648, No Iterations 3
[OGL LOG][Proc: 0]: global_index_init: 0.05 [ms]
[OGL LOG][Proc: 0]Uy_local_coeffs: call_update: 0 [ms]
[OGL LOG][Proc: 0]Uy_non_local_coeffs: call_update: 0 [ms]
[OGL LOG][Proc: 0]Uy: update_local_matrix_data: 37.281 [ms]
[OGL LOG][Proc: 0]Uy: update_non_local_matrix_data: 0.592 [ms]
[OGL LOG][Proc: 0]Uy_matrix: call_update: 2.575 [ms]
[OGL LOG][Proc: 0]Uy_rhs: call_update: 0.998 [ms]
[OGL LOG][Preconditioner.H:121] Generate preconditioner BJ MaxBlockSize 1
[OGL LOG][Proc: 0]Uy: init_precond: 1.956 [ms]
[OGL LOG][StoppingCriterion.H:239] Creating stopping criterion with minIter 4 frequency 1
[OGL LOG][Proc: 0]Uy: generate_solver: 0.018 [ms]
[OGL LOG][Proc: 0]Uy: solve: 77.819 [ms]
[OGL LOG][Proc: 0]Uy: copy_x_back: 2.472 [ms]
[OGL LOG][lduLduBase.H:330] 
Statistics:
	Time per iteration: 19454 [mu s]
	Time per residual norm calculation: 1820.000000 [mu s]
	Time per iteration and DOF: 1.542221 [ns]
	Retrieve results bandwidth 3.071000 [GByte/s]
[OGL LOG][Proc: 0]Uy: solve_multi_gpu: 92.163 [ms]
BJcudaGKOBiCGStab:  Solving for Uy, Initial residual = 0.0959790804716089, Final residual = 0.004593035508912231, No Iterations 4
[OGL LOG][Proc: 0]: global_index_init: 0.047 [ms]
[OGL LOG][Proc: 0]Uz_local_coeffs: call_update: 0 [ms]
[OGL LOG][Proc: 0]Uz_non_local_coeffs: call_update: 0 [ms]
[OGL LOG][Proc: 0]Uz: update_local_matrix_data: 36.44 [ms]
[OGL LOG][Proc: 0]Uz: update_non_local_matrix_data: 0.542 [ms]
[OGL LOG][Proc: 0]Uz_matrix: call_update: 2.488 [ms]
[OGL LOG][Proc: 0]Uz_rhs: call_update: 1.088 [ms]
[OGL LOG][Preconditioner.H:121] Generate preconditioner BJ MaxBlockSize 1
[OGL LOG][Proc: 0]Uz: init_precond: 1.866 [ms]
[OGL LOG][StoppingCriterion.H:239] Creating stopping criterion with minIter 4 frequency 1
[OGL LOG][Proc: 0]Uz: generate_solver: 0.015 [ms]
[OGL LOG][Proc: 0]Uz: solve: 87.21599999999999 [ms]
[OGL LOG][Proc: 0]Uz: copy_x_back: 2.691 [ms]
[OGL LOG][lduLduBase.H:330] 
Statistics:
	Time per iteration: 17443 [mu s]
	Time per residual norm calculation: 1554.000000 [mu s]
	Time per iteration and DOF: 1.382799 [ns]
	Retrieve results bandwidth 2.821000 [GByte/s]
[OGL LOG][Proc: 0]Uz: solve_multi_gpu: 102.116 [ms]
BJcudaGKOBiCGStab:  Solving for Uz, Initial residual = 0.4376619558751459, Final residual = 0.01400941287066857, No Iterations 5
[OGL LOG][Proc: 0]: global_index_init: 0.019 [ms]
[OGL LOG][Proc: 0]p_local_coeffs: call_update: 0 [ms]
[OGL LOG][Proc: 0]p_non_local_coeffs: call_update: 0 [ms]
[OGL LOG][Proc: 0]p: update_local_matrix_data: 30.628 [ms]
[OGL LOG][Proc: 0]p: update_non_local_matrix_data: 0.585 [ms]
[OGL LOG][Proc: 0]p_matrix: call_update: 2.552 [ms]
[OGL LOG][Proc: 0]p_rhs: call_update: 0.9330000000000001 [ms]
[OGL LOG][Preconditioner.H:346] Generate preconditioner Multigrid MaxLevels 9 MinCoarseRows 10 ZeroGuess 1 Cycle v
[OGL LOG][Proc: 0]p: init_precond: 303.387 [ms]
[OGL LOG][StoppingCriterion.H:239] Creating stopping criterion with minIter 58 frequency 2
[OGL LOG][Proc: 0]p: generate_solver: 0.01 [ms]
[OGL LOG][Proc: 0]p: solve: 738.078 [ms]
[OGL LOG][Proc: 0]p: copy_x_back: 2.674 [ms]
[OGL LOG][lduLduBase.H:330] 
Statistics:
	Time per iteration: 10110 [mu s]
	Time per residual norm calculation: 1266.000000 [mu s]
	Time per iteration and DOF: 0.801473 [ns]
	Retrieve results bandwidth 2.839000 [GByte/s]
[OGL LOG][Proc: 0]p: solve_multi_gpu: 1072.317 [ms]
MultigridcudaGKOCG:  Solving for p, Initial residual = 0.4151619686141995, Final residual = 0.004103315847971085, No Iterations 73
time step continuity errors : sum local = 0.03063901612108196, global = 0.0004941100537556237, cumulative = 0.01916394330612129
[OGL LOG][Proc: 0]: global_index_init: 0.664 [ms]
[OGL LOG][Proc: 0]nuTilda_local_coeffs: call_update: 0 [ms]
[OGL LOG][Proc: 0]nuTilda_non_local_coeffs: call_update: 0 [ms]
[OGL LOG][Proc: 0]nuTilda: update_local_matrix_data: 38.498 [ms]
[OGL LOG][Proc: 0]nuTilda: update_non_local_matrix_data: 0.602 [ms]
[OGL LOG][Proc: 0]nuTilda_matrix: call_update: 2.192 [ms]
[OGL LOG][Proc: 0]nuTilda_rhs: call_update: 1.171 [ms]
[OGL LOG][Preconditioner.H:121] Generate preconditioner BJ MaxBlockSize 1
[OGL LOG][Proc: 0]nuTilda: init_precond: 1.67 [ms]
[OGL LOG][StoppingCriterion.H:239] Creating stopping criterion with minIter 3 frequency 1
[OGL LOG][Proc: 0]nuTilda: generate_solver: 0.015 [ms]
[OGL LOG][Proc: 0]nuTilda: solve: 64.217 [ms]
[OGL LOG][Proc: 0]nuTilda: copy_x_back: 2.572 [ms]
[OGL LOG][lduLduBase.H:330] 
Statistics:
	Time per iteration: 32108 [mu s]
	Time per residual norm calculation: 1269.000000 [mu s]
	Time per iteration and DOF: 2.545371 [ns]
	Retrieve results bandwidth 2.952000 [GByte/s]
[OGL LOG][Proc: 0]nuTilda: solve_multi_gpu: 83.31 [ms]
BJcudaGKOBiCGStab:  Solving for nuTilda, Initial residual = 0.02958073580594595, Final residual = 0.001715461490849947, No Iterations 2
ExecutionTime = 216.88 s  ClockTime = 218 s

Time = 11

velocityDampingConstraint velocityDamping damped 149 (0%) of cells, with max limit 300
[OGL LOG][Proc: 0]: global_index_init: 0.067 [ms]
[OGL LOG][Proc: 0]Ux_local_coeffs: call_update: 0 [ms]
[OGL LOG][Proc: 0]Ux_non_local_coeffs: call_update: 0 [ms]
[OGL LOG][Proc: 0]Ux: update_local_matrix_data: 38.907 [ms]
[OGL LOG][Proc: 0]Ux: update_non_local_matrix_data: 0.551 [ms]
[OGL LOG][Proc: 0]Ux_matrix: call_update: 2.753 [ms]
[OGL LOG][Proc: 0]Ux_rhs: call_update: 0.978 [ms]
[OGL LOG][Preconditioner.H:121] Generate preconditioner BJ MaxBlockSize 1
[OGL LOG][Proc: 0]Ux: init_precond: 1.943 [ms]
[OGL LOG][StoppingCriterion.H:239] Creating stopping criterion with minIter 4 frequency 1
[OGL LOG][Proc: 0]Ux: generate_solver: 0.015 [ms]
[OGL LOG][Proc: 0]Ux: solve: 78.134 [ms]
[OGL LOG][Proc: 0]Ux: copy_x_back: 2.512 [ms]
[OGL LOG][lduLduBase.H:330] 
Statistics:
	Time per iteration: 19533 [mu s]
	Time per residual norm calculation: 1647.000000 [mu s]
	Time per iteration and DOF: 1.548484 [ns]
	Retrieve results bandwidth 3.022000 [GByte/s]
[OGL LOG][Proc: 0]Ux: solve_multi_gpu: 90.699 [ms]
BJcudaGKOBiCGStab:  Solving for Ux, Initial residual = 0.05136827074301362, Final residual = 0.003206129919930291, No Iterations 4
[OGL LOG][Proc: 0]: global_index_init: 0.052 [ms]
[OGL LOG][Proc: 0]Uy_local_coeffs: call_update: 0 [ms]
[OGL LOG][Proc: 0]Uy_non_local_coeffs: call_update: 0 [ms]
[OGL LOG][Proc: 0]Uy: update_local_matrix_data: 36.832 [ms]
[OGL LOG][Proc: 0]Uy: update_non_local_matrix_data: 0.576 [ms]
[OGL LOG][Proc: 0]Uy_matrix: call_update: 2.961 [ms]
[OGL LOG][Proc: 0]Uy_rhs: call_update: 0.837 [ms]
[OGL LOG][Preconditioner.H:121] Generate preconditioner BJ MaxBlockSize 1
[...]
[OGL LOG][Proc: 0]nuTilda_non_local_coeffs: call_update: 0 [ms]
[OGL LOG][Proc: 0]nuTilda: update_local_matrix_data: 35.68 [ms]
[OGL LOG][Proc: 0]nuTilda: update_non_local_matrix_data: 0.572 [ms]
[OGL LOG][Proc: 0]nuTilda_matrix: call_update: 2.385 [ms]
[OGL LOG][Proc: 0]nuTilda_rhs: call_update: 1.025 [ms]
[OGL LOG][Preconditioner.H:121] Generate preconditioner BJ MaxBlockSize 1
[OGL LOG][Proc: 0]nuTilda: init_precond: 1.885 [ms]
[OGL LOG][StoppingCriterion.H:239] Creating stopping criterion with minIter 3 frequency 1
[OGL LOG][Proc: 0]nuTilda: generate_solver: 0.015 [ms]
[OGL LOG][Proc: 0]nuTilda: solve: 63.876 [ms]
[OGL LOG][Proc: 0]nuTilda: copy_x_back: 2.491 [ms]
[OGL LOG][lduLduBase.H:330] 
Statistics:
	Time per iteration: 31938 [mu s]
	Time per residual norm calculation: 1269.000000 [mu s]
	Time per iteration and DOF: 2.531894 [ns]
	Retrieve results bandwidth 3.048000 [GByte/s]
[OGL LOG][Proc: 0]nuTilda: solve_multi_gpu: 85.33799999999999 [ms]
BJcudaGKOBiCGStab:  Solving for nuTilda, Initial residual = 0.008327696485548028, Final residual = 0.0005187124482801652, No Iterations 2
bounding nuTilda, min: -2.071735513959388e-05 max: 0.02749913033932316 average: 0.0009975370878682094
ExecutionTime = 629.4299999999999 s  ClockTime = 632 s

Time = 98

velocityDampingConstraint velocityDamping damped 0 (0%) of cells, with max limit 300
[OGL LOG][Proc: 0]: global_index_init: 0.059 [ms]
[OGL LOG][Proc: 0]Ux_local_coeffs: call_update: 0 [ms]
[OGL LOG][Proc: 0]Ux_non_local_coeffs: call_update: 0 [ms]
[OGL LOG][Proc: 0]Ux: update_local_matrix_data: 37.661 [ms]
[OGL LOG][Proc: 0]Ux: update_non_local_matrix_data: 0.574 [ms]
[OGL LOG][Proc: 0]Ux_matrix: call_update: 2.678 [ms]
[OGL LOG][Proc: 0]Ux_rhs: call_update: 0.987 [ms]
[OGL LOG][Preconditioner.H:121] Generate preconditioner BJ MaxBlockSize 1
[OGL LOG][Proc: 0]Ux: init_precond: 1.421 [ms]
[OGL LOG][StoppingCriterion.H:239] Creating stopping criterion with minIter 4 frequency 1
[OGL LOG][Proc: 0]Ux: generate_solver: 0.017 [ms]
[OGL LOG][Proc: 0]Ux: solve: 80.011 [ms]
[OGL LOG][Proc: 0]Ux: copy_x_back: 2.494 [ms]
[OGL LOG][lduLduBase.H:330] 
Statistics:
	Time per iteration: 20002 [mu s]
	Time per residual norm calculation: 1648.000000 [mu s]
	Time per iteration and DOF: 1.585664 [ns]
	Retrieve results bandwidth 3.044000 [GByte/s]
[OGL LOG][Proc: 0]Ux: solve_multi_gpu: 93.857 [ms]
BJcudaGKOBiCGStab:  Solving for Ux, Initial residual = 0.00288042542002175, Final residual = 0.0001049027830198649, No Iterations 4
[OGL LOG][Proc: 0]: global_index_init: 0.053 [ms]
[OGL LOG][Proc: 0]Uy_local_coeffs: call_update: 0 [ms]
[OGL LOG][Proc: 0]Uy_non_local_coeffs: call_update: 0 [ms]
[OGL LOG][Proc: 0]Uy: update_local_matrix_data: 36.307 [ms]
[OGL LOG][Proc: 0]Uy: update_non_local_matrix_data: 0.583 [ms]
[OGL LOG][Proc: 0]Uy_matrix: call_update: 2.65 [ms]
[OGL LOG][Proc: 0]Uy_rhs: call_update: 0.925 [ms]
[OGL LOG][Preconditioner.H:121] Generate preconditioner BJ MaxBlockSize 1
[OGL LOG][Proc: 0]Uy: init_precond: 1.403 [ms]
[OGL LOG][StoppingCriterion.H:239] Creating stopping criterion with minIter 4 frequency 1
[OGL LOG][Proc: 0]Uy: generate_solver: 0.016 [ms]
[OGL LOG][Proc: 0]Uy: solve: 76.624 [ms]
[OGL LOG][Proc: 0]Uy: copy_x_back: 2.326 [ms]
[OGL LOG][lduLduBase.H:330] 
Statistics:
	Time per iteration: 19156 [mu s]
	Time per residual norm calculation: 1824.000000 [mu s]
	Time per iteration and DOF: 1.518597 [ns]
	Retrieve results bandwidth 3.264000 [GByte/s]
[OGL LOG][Proc: 0]Uy: solve_multi_gpu: 91.27500000000001 [ms]
BJcudaGKOBiCGStab:  Solving for Uy, Initial residual = 0.01250652294080023, Final residual = 0.0004822181788116642, No Iterations 4
[OGL LOG][Proc: 0]: global_index_init: 0.054 [ms]
[OGL LOG][Proc: 0]Uz_local_coeffs: call_update: 0 [ms]
[OGL LOG][Proc: 0]Uz_non_local_coeffs: call_update: 0 [ms]
[OGL LOG][Proc: 0]Uz: update_local_matrix_data: 36.354 [ms]
[OGL LOG][Proc: 0]Uz: update_non_local_matrix_data: 0.544 [ms]
[OGL LOG][Proc: 0]Uz_matrix: call_update: 2.599 [ms]
[OGL LOG][Proc: 0]Uz_rhs: call_update: 1.019 [ms]
[OGL LOG][Preconditioner.H:121] Generate preconditioner BJ MaxBlockSize 1
[OGL LOG][Proc: 0]Uz: init_precond: 1.331 [ms]
[OGL LOG][StoppingCriterion.H:239] Creating stopping criterion with minIter 4 frequency 1
[OGL LOG][Proc: 0]Uz: generate_solver: 0.016 [ms]
[OGL LOG][Proc: 0]Uz: solve: 77.73399999999999 [ms]
[OGL LOG][Proc: 0]Uz: copy_x_back: 2.678 [ms]
[OGL LOG][lduLduBase.H:330] 
Statistics:
	Time per iteration: 19433 [mu s]
	Time per residual norm calculation: 1585.000000 [mu s]
	Time per iteration and DOF: 1.540557 [ns]
	Retrieve results bandwidth 2.835000 [GByte/s]
[OGL LOG][Proc: 0]Uz: solve_multi_gpu: 92.661 [ms]
BJcudaGKOBiCGStab:  Solving for Uz, Initial residual = 0.01321062090107136, Final residual = 0.0005614433347576376, No Iterations 4
[OGL LOG][Proc: 0]: global_index_init: 0.019 [ms]
[OGL LOG][Proc: 0]p_local_coeffs: call_update: 0 [ms]
[OGL LOG][Proc: 0]p_non_local_coeffs: call_update: 0 [ms]
[OGL LOG][Proc: 0]p: update_local_matrix_data: 28.335 [ms]
[OGL LOG][Proc: 0]p: update_non_local_matrix_data: 0.593 [ms]
[OGL LOG][Proc: 0]p_matrix: call_update: 2.803 [ms]
[OGL LOG][Proc: 0]p_rhs: call_update: 0.868 [ms]
[OGL LOG][Preconditioner.H:346] Generate preconditioner Multigrid MaxLevels 9 MinCoarseRows 10 ZeroGuess 1 Cycle v
[OGL LOG][Proc: 0]p: init_precond: 327.624 [ms]
[OGL LOG][StoppingCriterion.H:239] Creating stopping criterion with minIter 19 frequency 1
[OGL LOG][Proc: 0]p: generate_solver: 0.008999999999999999 [ms]
[OGL LOG][Proc: 0]p: solve: 864.427 [ms]
[OGL LOG][Proc: 0]p: copy_x_back: 2.758 [ms]
[OGL LOG][lduLduBase.H:330] 
Statistics:
	Time per iteration: 10414 [mu s]
	Time per residual norm calculation: 970.000000 [mu s]
	Time per iteration and DOF: 0.825573 [ns]
	Retrieve results bandwidth 2.752000 [GByte/s]
[OGL LOG][Proc: 0]p: solve_multi_gpu: 1224.866 [ms]
MultigridcudaGKOCG:  Solving for p, Initial residual = 0.07077701388634755, Final residual = 0.000671481836948588, No Iterations 83
time step continuity errors : sum local = 0.0004798519633634561, global = 1.780643600908073e-06, cumulative = 0.02038528659820752
[OGL LOG][Proc: 0]: global_index_init: 0.028 [ms]
[OGL LOG][Proc: 0]nuTilda_local_coeffs: call_update: 0 [ms]
[OGL LOG][Proc: 0]nuTilda_non_local_coeffs: call_update: 0 [ms]
[OGL LOG][Proc: 0]nuTilda: update_local_matrix_data: 36.77 [ms]
[OGL LOG][Proc: 0]nuTilda: update_non_local_matrix_data: 0.5629999999999999 [ms]
[OGL LOG][Proc: 0]nuTilda_matrix: call_update: 2.489 [ms]
[OGL LOG][Proc: 0]nuTilda_rhs: call_update: 0.9360000000000001 [ms]
[OGL LOG][Preconditioner.H:121] Generate preconditioner BJ MaxBlockSize 1
[OGL LOG][Proc: 0]nuTilda: init_precond: 1.206 [ms]
[OGL LOG][StoppingCriterion.H:239] Creating stopping criterion with minIter 3 frequency 1
[OGL LOG][Proc: 0]nuTilda: generate_solver: 0.017 [ms]
[OGL LOG][Proc: 0]nuTilda: solve: 65.21299999999999 [ms]
[OGL LOG][Proc: 0]nuTilda: copy_x_back: 2.461 [ms]
[OGL LOG][lduLduBase.H:330] 
Statistics:
	Time per iteration: 32606 [mu s]
	Time per residual norm calculation: 1266.000000 [mu s]
	Time per iteration and DOF: 2.584850 [ns]
	Retrieve results bandwidth 3.085000 [GByte/s]
[OGL LOG][Proc: 0]nuTilda: solve_multi_gpu: 79.634 [ms]
BJcudaGKOBiCGStab:  Solving for nuTilda, Initial residual = 0.006733866734878788, Final residual = 0.0004354886788686531, No Iterations 2
bounding nuTilda, min: -2.447537747060383e-05 max: 0.02797710402745693 average: 0.001022143074571335
ExecutionTime = 634.46 s  ClockTime = 637 s

Time = 99

velocityDampingConstraint velocityDamping damped 0 (0%) of cells, with max limit 300
[OGL LOG][Proc: 0]: global_index_init: 0.04 [ms]
[OGL LOG][Proc: 0]Ux_local_coeffs: call_update: 0 [ms]
[OGL LOG][Proc: 0]Ux_non_local_coeffs: call_update: 0 [ms]
[OGL LOG][Proc: 0]Ux: update_local_matrix_data: 37.126 [ms]
[OGL LOG][Proc: 0]Ux: update_non_local_matrix_data: 0.549 [ms]
[OGL LOG][Proc: 0]Ux_matrix: call_update: 2.994 [ms]
[OGL LOG][Proc: 0]Ux_rhs: call_update: 0.855 [ms]
[OGL LOG][Preconditioner.H:121] Generate preconditioner BJ MaxBlockSize 1
[OGL LOG][Proc: 0]Ux: init_precond: 1.368 [ms]
[OGL LOG][StoppingCriterion.H:239] Creating stopping criterion with minIter 4 frequency 1
[OGL LOG][Proc: 0]Ux: generate_solver: 0.017 [ms]
[OGL LOG][Proc: 0]Ux: solve: 74.274 [ms]
[OGL LOG][Proc: 0]Ux: copy_x_back: 2.408 [ms]
[OGL LOG][lduLduBase.H:330] 
Statistics:
	Time per iteration: 24758 [mu s]
	Time per residual norm calculation: 1622.000000 [mu s]
	Time per iteration and DOF: 1.962697 [ns]
	Retrieve results bandwidth 3.153000 [GByte/s]
[OGL LOG][Proc: 0]Ux: solve_multi_gpu: 87.23699999999999 [ms]
BJcudaGKOBiCGStab:  Solving for Ux, Initial residual = 0.002820798975131811, Final residual = 0.0001979727022994044, No Iterations 3
[OGL LOG][Proc: 0]: global_index_init: 0.05 [ms]
[OGL LOG][Proc: 0]Uy_local_coeffs: call_update: 0 [ms]
[OGL LOG][Proc: 0]Uy_non_local_coeffs: call_update: 0 [ms]
[OGL LOG][Proc: 0]Uy: update_local_matrix_data: 36.508 [ms]
[OGL LOG][Proc: 0]Uy: update_non_local_matrix_data: 0.581 [ms]
[OGL LOG][Proc: 0]Uy_matrix: call_update: 2.549 [ms]
[OGL LOG][Proc: 0]Uy_rhs: call_update: 1.149 [ms]
[OGL LOG][Preconditioner.H:121] Generate preconditioner BJ MaxBlockSize 1
[OGL LOG][Proc: 0]Uy: init_precond: 1.383 [ms]
[OGL LOG][StoppingCriterion.H:239] Creating stopping criterion with minIter 4 frequency 1
[OGL LOG][Proc: 0]Uy: generate_solver: 0.016 [ms]
[OGL LOG][Proc: 0]Uy: solve: 73.974 [ms]
[OGL LOG][Proc: 0]Uy: copy_x_back: 2.442 [ms]
[OGL LOG][lduLduBase.H:330] 
Statistics:
	Time per iteration: 24658 [mu s]
	Time per residual norm calculation: 1607.000000 [mu s]
	Time per iteration and DOF: 1.954770 [ns]
	Retrieve results bandwidth 3.109000 [GByte/s]
[OGL LOG][Proc: 0]Uy: solve_multi_gpu: 86.608 [ms]
BJcudaGKOBiCGStab:  Solving for Uy, Initial residual = 0.01285889257113538, Final residual = 0.001105666423122497, No Iterations 3
[OGL LOG][Proc: 0]: global_index_init: 0.056 [ms]
[OGL LOG][Proc: 0]Uz_local_coeffs: call_update: 0 [ms]
[OGL LOG][Proc: 0]Uz_non_local_coeffs: call_update: 0 [ms]
[OGL LOG][Proc: 0]Uz: update_local_matrix_data: 36.904 [ms]
[OGL LOG][Proc: 0]Uz: update_non_local_matrix_data: 0.595 [ms]
[OGL LOG][Proc: 0]Uz_matrix: call_update: 1.627 [ms]
[OGL LOG][Proc: 0]Uz_rhs: call_update: 2.385 [ms]
[OGL LOG][Preconditioner.H:121] Generate preconditioner BJ MaxBlockSize 1
[OGL LOG][Proc: 0]Uz: init_precond: 1.814 [ms]
[OGL LOG][StoppingCriterion.H:239] Creating stopping criterion with minIter 4 frequency 1
[OGL LOG][Proc: 0]Uz: generate_solver: 0.014 [ms]
[OGL LOG][Proc: 0]Uz: solve: 72.661 [ms]
[OGL LOG][Proc: 0]Uz: copy_x_back: 2.502 [ms]
[OGL LOG][lduLduBase.H:330] 
Statistics:
	Time per iteration: 24220 [mu s]
	Time per residual norm calculation: 1529.000000 [mu s]
	Time per iteration and DOF: 1.920047 [ns]
	Retrieve results bandwidth 3.034000 [GByte/s]
[OGL LOG][Proc: 0]Uz: solve_multi_gpu: 85.783 [ms]
BJcudaGKOBiCGStab:  Solving for Uz, Initial residual = 0.01312626792853366, Final residual = 0.001262866807837338, No Iterations 3
[OGL LOG][Proc: 0]: global_index_init: 0.168 [ms]
[OGL LOG][Proc: 0]p_local_coeffs: call_update: 0 [ms]
[OGL LOG][Proc: 0]p_non_local_coeffs: call_update: 0 [ms]
[OGL LOG][Proc: 0]p: update_local_matrix_data: 28.347 [ms]
[OGL LOG][Proc: 0]p: update_non_local_matrix_data: 0.59 [ms]
[OGL LOG][Proc: 0]p_matrix: call_update: 2.56 [ms]
[OGL LOG][Proc: 0]p_rhs: call_update: 0.998 [ms]
[OGL LOG][Preconditioner.H:346] Generate preconditioner Multigrid MaxLevels 9 MinCoarseRows 10 ZeroGuess 1 Cycle v
[OGL LOG][Proc: 0]p: init_precond: 314.339 [ms]
[OGL LOG][StoppingCriterion.H:239] Creating stopping criterion with minIter 49 frequency 1
[OGL LOG][Proc: 0]p: generate_solver: 0.008999999999999999 [ms]
[OGL LOG][Proc: 0]p: solve: 507.226 [ms]
[OGL LOG][Proc: 0]p: copy_x_back: 2.69 [ms]
[OGL LOG][lduLduBase.H:330] 
Statistics:
	Time per iteration: 10144 [mu s]
	Time per residual norm calculation: 1276.000000 [mu s]
	Time per iteration and DOF: 0.804168 [ns]
	Retrieve results bandwidth 2.822000 [GByte/s]
[OGL LOG][Proc: 0]p: solve_multi_gpu: 854.309 [ms]
MultigridcudaGKOCG:  Solving for p, Initial residual = 0.05878027660483819, Final residual = 0.0003462917430597903, No Iterations 50
time step continuity errors : sum local = 0.0002828019047050135, global = 3.728038644728184e-05, cumulative = 0.0204225669846548
[OGL LOG][Proc: 0]: global_index_init: 0.023 [ms]
[OGL LOG][Proc: 0]nuTilda_local_coeffs: call_update: 0 [ms]
[OGL LOG][Proc: 0]nuTilda_non_local_coeffs: call_update: 0 [ms]
[OGL LOG][Proc: 0]nuTilda: update_local_matrix_data: 42.036 [ms]
[OGL LOG][Proc: 0]nuTilda: update_non_local_matrix_data: 0.554 [ms]
[OGL LOG][Proc: 0]nuTilda_matrix: call_update: 2.496 [ms]
[OGL LOG][Proc: 0]nuTilda_rhs: call_update: 0.9340000000000001 [ms]
[OGL LOG][Preconditioner.H:121] Generate preconditioner BJ MaxBlockSize 1
[OGL LOG][Proc: 0]nuTilda: init_precond: 1.935 [ms]
[OGL LOG][StoppingCriterion.H:239] Creating stopping criterion with minIter 3 frequency 1
[OGL LOG][Proc: 0]nuTilda: generate_solver: 0.024 [ms]
[OGL LOG][Proc: 0]nuTilda: solve: 64.31100000000001 [ms]
[OGL LOG][Proc: 0]nuTilda: copy_x_back: 2.44 [ms]
[OGL LOG][lduLduBase.H:330] 
Statistics:
	Time per iteration: 32155 [mu s]
	Time per residual norm calculation: 1274.000000 [mu s]
	Time per iteration and DOF: 2.549097 [ns]
	Retrieve results bandwidth 3.111000 [GByte/s]
[OGL LOG][Proc: 0]nuTilda: solve_multi_gpu: 76.681 [ms]
BJcudaGKOBiCGStab:  Solving for nuTilda, Initial residual = 0.008164445439121098, Final residual = 0.0005127058607116944, No Iterations 2
bounding nuTilda, min: -3.430159325585409e-05 max: 0.02851414950973645 average: 0.001045989595229085
ExecutionTime = 639.09 s  ClockTime = 642 s

Time = 100

velocityDampingConstraint velocityDamping damped 0 (0%) of cells, with max limit 300
[OGL LOG][Proc: 0]: global_index_init: 0.063 [ms]
[OGL LOG][Proc: 0]Ux_local_coeffs: call_update: 0 [ms]
[OGL LOG][Proc: 0]Ux_non_local_coeffs: call_update: 0 [ms]
[OGL LOG][Proc: 0]Ux: update_local_matrix_data: 38.966 [ms]
[OGL LOG][Proc: 0]Ux: update_non_local_matrix_data: 0.53 [ms]
[OGL LOG][Proc: 0]Ux_matrix: call_update: 2.821 [ms]
[OGL LOG][Proc: 0]Ux_rhs: call_update: 0.92 [ms]
[OGL LOG][Preconditioner.H:121] Generate preconditioner BJ MaxBlockSize 1
[OGL LOG][Proc: 0]Ux: init_precond: 1.479 [ms]
[OGL LOG][StoppingCriterion.H:239] Creating stopping criterion with minIter 4 frequency 1
[OGL LOG][Proc: 0]Ux: generate_solver: 0.016 [ms]
[OGL LOG][Proc: 0]Ux: solve: 74.84399999999999 [ms]
[OGL LOG][Proc: 0]Ux: copy_x_back: 2.416 [ms]
[OGL LOG][lduLduBase.H:330] 
Statistics:
	Time per iteration: 24948 [mu s]
	Time per residual norm calculation: 1619.000000 [mu s]
	Time per iteration and DOF: 1.977760 [ns]
	Retrieve results bandwidth 3.142000 [GByte/s]
[OGL LOG][Proc: 0]Ux: solve_multi_gpu: 86.636 [ms]
BJcudaGKOBiCGStab:  Solving for Ux, Initial residual = 0.002745884139745136, Final residual = 0.0002268210788846493, No Iterations 3
[OGL LOG][Proc: 0]: global_index_init: 0.187 [ms]
[OGL LOG][Proc: 0]Uy_local_coeffs: call_update: 0 [ms]
[OGL LOG][Proc: 0]Uy_non_local_coeffs: call_update: 0 [ms]
[OGL LOG][Proc: 0]Uy: update_local_matrix_data: 36.609 [ms]
[OGL LOG][Proc: 0]Uy: update_non_local_matrix_data: 0.548 [ms]
[OGL LOG][Proc: 0]Uy_matrix: call_update: 2.683 [ms]
[OGL LOG][Proc: 0]Uy_rhs: call_update: 1.003 [ms]
[OGL LOG][Preconditioner.H:121] Generate preconditioner BJ MaxBlockSize 1
[OGL LOG][Proc: 0]Uy: init_precond: 1.951 [ms]
[OGL LOG][StoppingCriterion.H:239] Creating stopping criterion with minIter 4 frequency 1
[OGL LOG][Proc: 0]Uy: generate_solver: 0.016 [ms]
[OGL LOG][Proc: 0]Uy: solve: 77.533 [ms]
[OGL LOG][Proc: 0]Uy: copy_x_back: 2.635 [ms]
[OGL LOG][lduLduBase.H:330] 
Statistics:
	Time per iteration: 19383 [mu s]
	Time per residual norm calculation: 1457.000000 [mu s]
	Time per iteration and DOF: 1.536593 [ns]
	Retrieve results bandwidth 2.881000 [GByte/s]
[OGL LOG][Proc: 0]Uy: solve_multi_gpu: 92.503 [ms]
BJcudaGKOBiCGStab:  Solving for Uy, Initial residual = 0.01293890278014146, Final residual = 0.0004653675287053105, No Iterations 4
[OGL LOG][Proc: 0]: global_index_init: 0.081 [ms]
[OGL LOG][Proc: 0]Uz_local_coeffs: call_update: 0 [ms]
[OGL LOG][Proc: 0]Uz_non_local_coeffs: call_update: 0 [ms]
[OGL LOG][Proc: 0]Uz: update_local_matrix_data: 37.33 [ms]
[OGL LOG][Proc: 0]Uz: update_non_local_matrix_data: 0.606 [ms]
[OGL LOG][Proc: 0]Uz_matrix: call_update: 2.449 [ms]
[OGL LOG][Proc: 0]Uz_rhs: call_update: 1.113 [ms]
[OGL LOG][Preconditioner.H:121] Generate preconditioner BJ MaxBlockSize 1
[OGL LOG][Proc: 0]Uz: init_precond: 1.508 [ms]
[OGL LOG][StoppingCriterion.H:239] Creating stopping criterion with minIter 4 frequency 1
[OGL LOG][Proc: 0]Uz: generate_solver: 0.014 [ms]
[OGL LOG][Proc: 0]Uz: solve: 77.614 [ms]
[OGL LOG][Proc: 0]Uz: copy_x_back: 2.357 [ms]
[OGL LOG][lduLduBase.H:330] 
Statistics:
	Time per iteration: 19403 [mu s]
	Time per residual norm calculation: 1611.000000 [mu s]
	Time per iteration and DOF: 1.538178 [ns]
	Retrieve results bandwidth 3.221000 [GByte/s]
[OGL LOG][Proc: 0]Uz: solve_multi_gpu: 89.536 [ms]
BJcudaGKOBiCGStab:  Solving for Uz, Initial residual = 0.01322406345469671, Final residual = 0.0005223996733065457, No Iterations 4
[OGL LOG][Proc: 0]: global_index_init: 0.018 [ms]
[OGL LOG][Proc: 0]p_local_coeffs: call_update: 0 [ms]
[OGL LOG][Proc: 0]p_non_local_coeffs: call_update: 0 [ms]
[OGL LOG][Proc: 0]p: update_local_matrix_data: 28.533 [ms]
[OGL LOG][Proc: 0]p: update_non_local_matrix_data: 0.584 [ms]
[OGL LOG][Proc: 0]p_matrix: call_update: 3.114 [ms]
[OGL LOG][Proc: 0]p_rhs: call_update: 0.822 [ms]
[OGL LOG][Preconditioner.H:346] Generate preconditioner Multigrid MaxLevels 9 MinCoarseRows 10 ZeroGuess 1 Cycle v
[OGL LOG][Proc: 0]p: init_precond: 317.03 [ms]
[OGL LOG][StoppingCriterion.H:239] Creating stopping criterion with minIter 30 frequency 1
[OGL LOG][Proc: 0]p: generate_solver: 0.008999999999999999 [ms]
[OGL LOG][Proc: 0]p: solve: 335.971 [ms]
[OGL LOG][Proc: 0]p: copy_x_back: 2.663 [ms]
[OGL LOG][lduLduBase.H:330] 
Statistics:
	Time per iteration: 10837 [mu s]
	Time per residual norm calculation: 1261.000000 [mu s]
	Time per iteration and DOF: 0.859106 [ns]
	Retrieve results bandwidth 2.851000 [GByte/s]
[OGL LOG][Proc: 0]p: solve_multi_gpu: 684.725 [ms]
MultigridcudaGKOCG:  Solving for p, Initial residual = 0.05464548144963139, Final residual = 0.000543699421968514, No Iterations 31
time step continuity errors : sum local = 0.0004373388934948685, global = -9.675086167419972e-05, cumulative = 0.0203258161229806
[OGL LOG][Proc: 0]: global_index_init: 0.025 [ms]
[OGL LOG][Proc: 0]nuTilda_local_coeffs: call_update: 0 [ms]
[OGL LOG][Proc: 0]nuTilda_non_local_coeffs: call_update: 0 [ms]
[OGL LOG][Proc: 0]nuTilda: update_local_matrix_data: 38.439 [ms]
[OGL LOG][Proc: 0]nuTilda: update_non_local_matrix_data: 0.533 [ms]
[OGL LOG][Proc: 0]nuTilda_matrix: call_update: 2.424 [ms]
[OGL LOG][Proc: 0]nuTilda_rhs: call_update: 0.917 [ms]
[OGL LOG][Preconditioner.H:121] Generate preconditioner BJ MaxBlockSize 1
[OGL LOG][Proc: 0]nuTilda: init_precond: 1.937 [ms]
[OGL LOG][StoppingCriterion.H:239] Creating stopping criterion with minIter 3 frequency 1
[OGL LOG][Proc: 0]nuTilda: generate_solver: 0.032 [ms]
[OGL LOG][Proc: 0]nuTilda: solve: 63.516 [ms]
[OGL LOG][Proc: 0]nuTilda: copy_x_back: 2.54 [ms]
[OGL LOG][lduLduBase.H:330] 
Statistics:
	Time per iteration: 31758 [mu s]
	Time per residual norm calculation: 1269.000000 [mu s]
	Time per iteration and DOF: 2.517624 [ns]
	Retrieve results bandwidth 2.989000 [GByte/s]
[OGL LOG][Proc: 0]nuTilda: solve_multi_gpu: 81.38200000000001 [ms]
BJcudaGKOBiCGStab:  Solving for nuTilda, Initial residual = 0.006650212016605647, Final residual = 0.0004349741011488383, No Iterations 2
bounding nuTilda, min: -2.980467485679195e-05 max: 0.02901759369219272 average: 0.001071333037288785
ExecutionTime = 643.5700000000001 s  ClockTime = 646 s

End

Finalising parallel run
