/*---------------------------------------------------------------------------*\
| =========                 |                                                 |
| \\      /  F ield         | OpenFOAM: The Open Source CFD Toolbox           |
|  \\    /   O peration     | Version:  2306                                  |
|   \\  /    A nd           | Website:  www.openfoam.com                      |
|    \\/     M anipulation  |                                                 |
\*---------------------------------------------------------------------------*/
Build  : a6e826bd55-20230630 OPENFOAM=2306 version=v2306
Arch   : "LSB;label=32;scalar=64"
Exec   : simpleFoam -parallel -case /home/greole/data/code/exasim_project/micro_benchmarks/WindsorBody/workspace/6e48229fd996bc0d9c2e9215d4c9fb63/case
Date   : Aug 02 2023
Time   : 12:53:53
Host   : nla-gpu2.ianm.kit.edu
PID    : 79666
I/O    : uncollated
Case   : /home/greole/data/code/exasim_project/micro_benchmarks/WindsorBody/workspace/6e48229fd996bc0d9c2e9215d4c9fb63/case
nProcs : 16
Hosts  :
(
    (nla-gpu2.ianm.kit.edu 16)
)
Pstream initialized with:
    floatTransfer      : false
    nProcsSimpleSum    : 0
    nonBlockingExchange: 0 (tuning: 0)
    exchange algorithm : -1
    commsType          : nonBlocking
    polling iterations : 0
trapFpe: Floating point exception trapping enabled (FOAM_SIGFPE).
fileModificationChecking : Monitoring run-time modified files using timeStampMaster (fileModificationSkew 5, maxFileModificationPolls 20)
allowSystemOperations : Allowing user-supplied system call operations

// * * * * * * * * * * * * * * * * * * * * * * * * * * * * * * * * * * * * * //
Create time

--> FOAM Warning : 
    From void* Foam::dlLibraryTable::openLibrary(const Foam::fileName&, bool)
    in file db/dynamicLibrary/dlLibraryTable/dlLibraryTable.C at line 188
    Could not load "libpetscFoam.so"
libpetscFoam.so: cannot open shared object file: No such file or directory
Create mesh for time = 0


SIMPLE: convergence criteria
    field p	 tolerance 1e-08
    field U	 tolerance 1e-08
    field k	 tolerance 1e-08
    field omega	 tolerance 1e-08
    field nuTilda	 tolerance 1e-08

Reading field p

Reading field U

Reading/calculating face flux field phi

Selecting incompressible transport model Newtonian
Selecting turbulence model type RAS
Selecting RAS turbulence model SpalartAllmaras
Selecting patchDistMethod meshWave
ft2 term: inactive
RAS
{
    RASModel        SpalartAllmaras;
    turbulence      on;
    printCoeffs     on;
    sigmaNut        0.66666;
    kappa           0.41;
    Cb1             0.1355;
    Cb2             0.622;
    Cw2             0.3;
    Cw3             2;
    Cv1             7.1;
    Cs              0.3;
    ck              0.07000000000000001;
    ft2             false;
    Ct3             1.2;
    Ct4             0.5;
}

No MRF models present

Creating finite volume options from "system/fvOptions"

Selecting finite volume options type velocityDampingConstraint
    Source: velocityDamping
    - selecting all cells
    - selected 12614272 cell(s) with volume 55.65166103214618

Starting time loop

--> FOAM Warning : 
    From bool Foam::functionObjectList::read()
    in file db/functionObjects/functionObjectList/functionObjectList.C at line 1035
    Reading "system/controlDict" at line 2 to 41
    Entry 'lref' is not a dictionary
--> FOAM Warning : 
    From bool Foam::functionObjectList::read()
    in file db/functionObjects/functionObjectList/functionObjectList.C at line 1035
    Reading "system/controlDict" at line 2 to 41
    Entry 'Aref' is not a dictionary
--> FOAM Warning : 
    From bool Foam::functionObjectList::read()
    in file db/functionObjects/functionObjectList/functionObjectList.C at line 1035
    Reading "system/controlDict" at line 2 to 41
    Entry 'yawAngle' is not a dictionary
--> FOAM Warning : 
    From bool Foam::functionObjectList::read()
    in file db/functionObjects/functionObjectList/functionObjectList.C at line 1035
    Reading "system/controlDict" at line 2 to 41
    Entry 'lDomain' is not a dictionary
--> FOAM Warning : 
    From bool Foam::functionObjectList::read()
    in file db/functionObjects/functionObjectList/functionObjectList.C at line 1035
    Reading "system/controlDict" at line 2 to 41
    Entry 'bDomain' is not a dictionary
--> FOAM Warning : 
    From bool Foam::functionObjectList::read()
    in file db/functionObjects/functionObjectList/functionObjectList.C at line 1035
    Reading "system/controlDict" at line 2 to 41
    Entry 'hDomain' is not a dictionary
--> FOAM Warning : 
    From bool Foam::functionObjectList::read()
    in file db/functionObjects/functionObjectList/functionObjectList.C at line 1035
    Reading "system/controlDict" at line 2 to 41
    Entry 'xCenter' is not a dictionary
--> FOAM Warning : 
    From bool Foam::functionObjectList::read()
    in file db/functionObjects/functionObjectList/functionObjectList.C at line 1035
    Reading "system/controlDict" at line 2 to 41
    Entry 'yCenter' is not a dictionary
--> FOAM Warning : 
    From bool Foam::functionObjectList::read()
    in file db/functionObjects/functionObjectList/functionObjectList.C at line 1035
    Reading "system/controlDict" at line 2 to 41
    Entry 'zCenter' is not a dictionary
--> FOAM Warning : 
    From bool Foam::functionObjectList::read()
    in file db/functionObjects/functionObjectList/functionObjectList.C at line 1035
    Reading "system/controlDict" at line 2 to 41
    Entry 'inletPatch' is not a dictionary
--> FOAM Warning : 
    From bool Foam::functionObjectList::read()
    in file db/functionObjects/functionObjectList/functionObjectList.C at line 1035
    Reading "system/controlDict" at line 2 to 41
    Entry 'outletPatch' is not a dictionary
--> FOAM Warning : 
    From bool Foam::functionObjectList::read()
    in file db/functionObjects/functionObjectList/functionObjectList.C at line 1035
    Reading "system/controlDict" at line 2 to 41
    Entry 'wallPatches' is not a dictionary
--> FOAM Warning : 
    From bool Foam::functionObjectList::read()
    in file db/functionObjects/functionObjectList/functionObjectList.C at line 1035
    Reading "system/controlDict" at line 2 to 41
    Entry 'forcesWallPatches' is not a dictionary
--> FOAM Warning : 
    From bool Foam::functionObjectList::read()
    in file db/functionObjects/functionObjectList/functionObjectList.C at line 1035
    Reading "system/controlDict" at line 2 to 41
    Entry 'symmPatches' is not a dictionary
--> FOAM Warning : 
    From bool Foam::functionObjectList::read()
    in file db/functionObjects/functionObjectList/functionObjectList.C at line 1035
    Reading "system/controlDict" at line 2 to 41
    Entry 'Uinf' is not a dictionary
--> FOAM Warning : 
    From bool Foam::functionObjectList::read()
    in file db/functionObjects/functionObjectList/functionObjectList.C at line 1035
    Reading "system/controlDict" at line 2 to 41
    Entry 'UinfMag' is not a dictionary
--> FOAM Warning : 
    From bool Foam::functionObjectList::read()
    in file db/functionObjects/functionObjectList/functionObjectList.C at line 1035
    Reading "system/controlDict" at line 2 to 41
    Entry 'nu' is not a dictionary
--> FOAM Warning : 
    From bool Foam::functionObjectList::read()
    in file db/functionObjects/functionObjectList/functionObjectList.C at line 1035
    Reading "system/controlDict" at line 2 to 41
    Entry 'pref' is not a dictionary
--> FOAM Warning : 
    From bool Foam::functionObjectList::read()
    in file db/functionObjects/functionObjectList/functionObjectList.C at line 1035
    Reading "system/controlDict" at line 2 to 41
    Entry 'viscRatio' is not a dictionary
--> FOAM Warning : 
    From bool Foam::functionObjectList::read()
    in file db/functionObjects/functionObjectList/functionObjectList.C at line 1035
    Reading "system/controlDict" at line 2 to 41
    Entry 'Tu' is not a dictionary
--> FOAM Warning : 
    From bool Foam::functionObjectList::read()
    in file db/functionObjects/functionObjectList/functionObjectList.C at line 1035
    Reading "system/controlDict" at line 2 to 41
    Entry 'LESturbModel' is not a dictionary
--> FOAM Warning : 
    From bool Foam::functionObjectList::read()
    in file db/functionObjects/functionObjectList/functionObjectList.C at line 1035
    Reading "system/controlDict" at line 2 to 41
    Entry 'RASturbModel' is not a dictionary
--> FOAM Warning : 
    From bool Foam::functionObjectList::read()
    in file db/functionObjects/functionObjectList/functionObjectList.C at line 1035
    Reading "system/controlDict" at line 2 to 41
    Entry 'deltaTurb' is not a dictionary
--> FOAM Warning : 
    From bool Foam::functionObjectList::read()
    in file db/functionObjects/functionObjectList/functionObjectList.C at line 1035
    Reading "system/controlDict" at line 2 to 41
    Entry 'dt' is not a dictionary
--> FOAM Warning : 
    From bool Foam::functionObjectList::read()
    in file db/functionObjects/functionObjectList/functionObjectList.C at line 1035
    Reading "system/controlDict" at line 2 to 41
    Entry 'tAvg' is not a dictionary
--> FOAM Warning : 
    From bool Foam::functionObjectList::read()
    in file db/functionObjects/functionObjectList/functionObjectList.C at line 1035
    Reading "system/controlDict" at line 2 to 41
    Entry 'tEnd' is not a dictionary
--> FOAM Warning : 
    From bool Foam::functionObjectList::read()
    in file db/functionObjects/functionObjectList/functionObjectList.C at line 1035
    Reading "system/controlDict" at line 2 to 41
    Entry 'writeInterval_' is not a dictionary
--> FOAM Warning : 
    From bool Foam::functionObjectList::read()
    in file db/functionObjects/functionObjectList/functionObjectList.C at line 1035
    Reading "system/controlDict" at line 2 to 41
    Entry 'nCores' is not a dictionary
--> FOAM Warning : 
    From bool Foam::functionObjectList::read()
    in file db/functionObjects/functionObjectList/functionObjectList.C at line 1035
    Reading "system/controlDict" at line 2 to 41
    Entry 'interpScheme' is not a dictionary
--> FOAM Warning : 
    From bool Foam::functionObjectList::read()
    in file db/functionObjects/functionObjectList/functionObjectList.C at line 1035
    Reading "system/controlDict" at line 2 to 41
    Entry 'probeField' is not a dictionary
wallShearStress wallShearStress:
    processing wall patches: 
        Windsor_Body
        CFDWT_Floor
        Windsor_Pins
        Windsor_Base
        Windsor_Body_2
        CFDWT_Floor_2
        Windsor_Pins_2
        Windsor_Base_2

pressure calc_cp:
    Operating mode: staticCoeff
    Not including hydrostatic effects

forceCoeffs forceCoeffsAll:
    rho: rhoInf
    Freestream density (rhoInf) set to 1
    Not including porosity effects
    magUInf: 40
    lRef   : 0.6375
    Aref   : 0.1124
    rhoInf : 1
    Selecting all coefficients
    - Drag force: Cd
    - Drag force front: Cd(f)
    - Drag force rear: Cd(r)
    - Lift force: Cl
    - Lift force front: Cl(f)
    - Lift force rear: Cl(r)
    - Pitch moment: CmPitch
    - Roll moment: CmRoll
    - Yaw moment: CmYaw
    - Side force: Cs
    - Side force front: Cs(f)
    - Side force rear: Cs(r)


forceCoeffs dragCoeffBase:
    rho: rhoInf
    Freestream density (rhoInf) set to 1
    Not including porosity effects
    magUInf: 40
    lRef   : 0.6375
    Aref   : 0.1124
    rhoInf : 1
    Selecting coefficients:
    - Drag force: Cd


Time = 1

velocityDampingConstraint velocityDamping damped 0 (0%) of cells, with max limit 300
[INFO] MatrixAssemblyU: 1130.273 [ms]
smoothSolver:  Solving for Ux, Initial residual = 0.9999999999991107, Final residual = 0.08730376106487635, No Iterations 15
smoothSolver:  Solving for Uy, Initial residual = 1, Final residual = 0.08968718090901757, No Iterations 31
smoothSolver:  Solving for Uz, Initial residual = 1, Final residual = 0.03285812037166155, No Iterations 2
[INFO] MomentumPredictor: 1069.895 [ms]
[INFO] MatrixAssemblyPI: 170.47 [ms]
[INFO] MatrixAssemblyPII: 84.703 [ms]
GAMG:  Solving for p, Initial residual = 1, Final residual = 0.008753841962482819, No Iterations 25
[INFO] SolveP: 2674.907 [ms]
time step continuity errors : sum local = 0.003211831366585345, global = 1.759603051363264e-05, cumulative = 1.759603051363264e-05
[INFO] postSolveP: 45.159 [ms]
smoothSolver:  Solving for nuTilda, Initial residual = 0.9999999972963511, Final residual = 0.0642999754327117, No Iterations 3
[INFO] TimeStep: 5835.238 [ms]
ExecutionTime = 22.07 s  ClockTime = 22 s

--> FOAM Warning : 
    From virtual bool Foam::functionObjects::fieldSelection::checkSelection()
    in file functionObjects/fieldSelections/fieldSelection/fieldSelection.C at line 166
    Field k not found
--> FOAM Warning : 
    From virtual bool Foam::functionObjects::fieldSelection::checkSelection()
    in file functionObjects/fieldSelections/fieldSelection/fieldSelection.C at line 166
    Field gammaInt not found
--> FOAM Warning : 
    From virtual bool Foam::functionObjects::fieldSelection::checkSelection()
    in file functionObjects/fieldSelections/fieldSelection/fieldSelection.C at line 166
    Field omega not found
--> FOAM Warning : 
    From virtual bool Foam::functionObjects::fieldSelection::checkSelection()
    in file functionObjects/fieldSelections/fieldSelection/fieldSelection.C at line 166
    Field ReThetat not found
--> FOAM Warning : 
    From virtual bool Foam::functionObjects::fieldSelection::checkSelection()
    in file functionObjects/fieldSelections/fieldSelection/fieldSelection.C at line 166
    Field epsilon not found
--> FOAM Warning : 
    From virtual bool Foam::functionObjects::solverFieldSelection::updateSelection()
    in file functionObjects/fieldSelections/solverFieldSelection/solverFieldSelection.C at line 85
    Valid solver fields are: 3(U nuTilda p)Time = 2

velocityDampingConstraint velocityDamping damped 0 (0%) of cells, with max limit 300
[INFO] MatrixAssemblyU: 1072.329 [ms]
smoothSolver:  Solving for Ux, Initial residual = 0.2130501571163809, Final residual = 0.01840747693415828, No Iterations 13
smoothSolver:  Solving for Uy, Initial residual = 0.3547373803280675, Final residual = 0.0331222908022569, No Iterations 13
smoothSolver:  Solving for Uz, Initial residual = 0.3289721045065373, Final residual = 0.02812898512391693, No Iterations 13
[INFO] MomentumPredictor: 891.294 [ms]
[INFO] MatrixAssemblyPI: 170.919 [ms]
[INFO] MatrixAssemblyPII: 84.928 [ms]
GAMG:  Solving for p, Initial residual = 0.2100528785493712, Final residual = 0.002007068754783788, No Iterations 12
[INFO] SolveP: 1133.352 [ms]
time step continuity errors : sum local = 0.04107597764427788, global = -0.0003089637947417433, cumulative = -0.0002913677642281107
[INFO] postSolveP: 44.985 [ms]
smoothSolver:  Solving for nuTilda, Initial residual = 0.4059752268728173, Final residual = 0.02532394671058745, No Iterations 1
[INFO] TimeStep: 4029.177 [ms]
ExecutionTime = 26.95 s  ClockTime = 27 s

Time = 3

velocityDampingConstraint velocityDamping damped 1662 (0.01%) of cells, with max limit 300
[INFO] MatrixAssemblyU: 1098.54 [ms]
smoothSolver:  Solving for Ux, Initial residual = 0.1260533532658735, Final residual = 0.01201653486896304, No Iterations 9
smoothSolver:  Solving for Uy, Initial residual = 0.2048842835751014, Final residual = 0.02003867507498748, No Iterations 10
smoothSolver:  Solving for Uz, Initial residual = 0.2160100633327616, Final residual = 0.02146413336072854, No Iterations 9
[INFO] MomentumPredictor: 684.1849999999999 [ms]
[INFO] MatrixAssemblyPI: 170.442 [ms]
[INFO] MatrixAssemblyPII: 84.492 [ms]
GAMG:  Solving for p, Initial residual = 0.1072372874248162, Final residual = 0.0009487405011433564, No Iterations 10
[INFO] SolveP: 955.34 [ms]
time step continuity errors : sum local = 0.01162984902481042, global = -0.0001269146527224167, cumulative = -0.0004182824169505274
[INFO] postSolveP: 44.65 [ms]
smoothSolver:  Solving for nuTilda, Initial residual = 0.208380728736712, Final residual = 0.01316111873931854, No Iterations 2
[INFO] TimeStep: 3686.056 [ms]
ExecutionTime = 31.5 s  ClockTime = 32 s

Time = 4

velocityDampingConstraint velocityDamping damped 0 (0%) of cells, with max limit 300
[INFO] MatrixAssemblyU: 1102.383 [ms]
smoothSolver:  Solving for Ux, Initial residual = 0.0541164073875905, Final residual = 0.004909892693827666, No Iterations 11
smoothSolver:  Solving for Uy, Initial residual = 0.1218067472203435, Final residual = 0.01068522286929528, No Iterations 11
smoothSolver:  Solving for Uz, Initial residual = 0.1314803874614513, Final residual = 0.01266957935984853, No Iterations 10
[INFO] MomentumPredictor: 759.92 [ms]
[INFO] MatrixAssemblyPI: 170.08 [ms]
[INFO] MatrixAssemblyPII: 84.708 [ms]
GAMG:  Solving for p, Initial residual = 0.1462011431915971, Final residual = 0.001120565215124068, No Iterations 7
[INFO] SolveP: 685.278 [ms]
time step continuity errors : sum local = 0.01032888596681399, global = 0.0001415964532556397, cumulative = -0.0002766859636948877
[INFO] postSolveP: 44.656 [ms]
smoothSolver:  Solving for nuTilda, Initial residual = 0.1247308330567235, Final residual = 0.01049605905331634, No Iterations 2
[INFO] TimeStep: 3492.986 [ms]
ExecutionTime = 35.87 s  ClockTime = 36 s

Time = 5

velocityDampingConstraint velocityDamping damped 229 (0%) of cells, with max limit 300
[INFO] MatrixAssemblyU: 1091.362 [ms]
smoothSolver:  Solving for Ux, Initial residual = 0.04399078429950164, Final residual = 0.004193961286517445, No Iterations 10
smoothSolver:  Solving for Uy, Initial residual = 0.09710548820860447, Final residual = 0.009059668441818687, No Iterations 11
smoothSolver:  Solving for Uz, Initial residual = 0.1135866326149918, Final residual = 0.01116258583859257, No Iterations 10
[INFO] MomentumPredictor: 742.434 [ms]
[INFO] MatrixAssemblyPI: 171.044 [ms]
[INFO] MatrixAssemblyPII: 84.94799999999999 [ms]
GAMG:  Solving for p, Initial residual = 0.1108572593531803, Final residual = 0.001099397038175258, No Iterations 7
[INFO] SolveP: 682.426 [ms]
time step continuity errors : sum local = 0.00761783568880073, global = 0.000201062504427312, cumulative = -7.562345926757574e-05
[INFO] postSolveP: 44.926 [ms]
smoothSolver:  Solving for nuTilda, Initial residual = 0.07085325572023367, Final residual = 0.004311113626586582, No Iterations 3
[INFO] TimeStep: 3478.365 [ms]
ExecutionTime = 40.21 s  ClockTime = 41 s

Time = 6

velocityDampingConstraint velocityDamping damped 0 (0%) of cells, with max limit 300
[INFO] MatrixAssemblyU: 1085.137 [ms]
smoothSolver:  Solving for Ux, Initial residual = 0.0299668719949821, Final residual = 0.002666685833296488, No Iterations 12
smoothSolver:  Solving for Uy, Initial residual = 0.0747577340992093, Final residual = 0.006911759266410396, No Iterations 12
smoothSolver:  Solving for Uz, Initial residual = 0.08146481344446752, Final residual = 0.006981677681094088, No Iterations 12
[INFO] MomentumPredictor: 835.1900000000001 [ms]
[INFO] MatrixAssemblyPI: 170.347 [ms]
[INFO] MatrixAssemblyPII: 84.73 [ms]
GAMG:  Solving for p, Initial residual = 0.09347275996149736, Final residual = 0.0007109535423596518, No Iterations 7
[INFO] SolveP: 682.655 [ms]
time step continuity errors : sum local = 0.005395488984954492, global = 3.786124986735583e-05, cumulative = -3.776220940021992e-05
[INFO] postSolveP: 45.095 [ms]
smoothSolver:  Solving for nuTilda, Initial residual = 0.06425056534496713, Final residual = 0.003001444815663484, No Iterations 3
[INFO] TimeStep: 3561.076 [ms]
ExecutionTime = 44.63 s  ClockTime = 45 s

Time = 7

velocityDampingConstraint velocityDamping damped 26 (0%) of cells, with max limit 300
[INFO] MatrixAssemblyU: 1081.51 [ms]
smoothSolver:  Solving for Ux, Initial residual = 0.02718523262473276, Final residual = 0.002427327672702409, No Iterations 12
smoothSolver:  Solving for Uy, Initial residual = 0.06791092937985435, Final residual = 0.006455040719976261, No Iterations 12
smoothSolver:  Solving for Uz, Initial residual = 0.0715854399063066, Final residual = 0.006278875364983251, No Iterations 12
[INFO] MomentumPredictor: 839.028 [ms]
[INFO] MatrixAssemblyPI: 170.576 [ms]
[INFO] MatrixAssemblyPII: 84.508 [ms]
GAMG:  Solving for p, Initial residual = 0.07975431281927711, Final residual = 0.0006519360736877593, No Iterations 6
[INFO] SolveP: 591.318 [ms]
time step continuity errors : sum local = 0.004961094987774003, global = -4.603469051822437e-05, cumulative = -8.379689991844428e-05
[INFO] postSolveP: 45.052 [ms]
smoothSolver:  Solving for nuTilda, Initial residual = 0.04909929232164099, Final residual = 0.00322950010855692, No Iterations 3
[INFO] TimeStep: 3470.286 [ms]
ExecutionTime = 48.95 s  ClockTime = 49 s

Time = 8

velocityDampingConstraint velocityDamping damped 0 (0%) of cells, with max limit 300
[INFO] MatrixAssemblyU: 1077.362 [ms]
smoothSolver:  Solving for Ux, Initial residual = 0.02308649388109767, Final residual = 0.002140540742924185, No Iterations 12
smoothSolver:  Solving for Uy, Initial residual = 0.06029444614463252, Final residual = 0.005937847532914643, No Iterations 12
smoothSolver:  Solving for Uz, Initial residual = 0.06213895056909999, Final residual = 0.005636604344071387, No Iterations 12
[INFO] MomentumPredictor: 834.1 [ms]
[INFO] MatrixAssemblyPI: 170.458 [ms]
[INFO] MatrixAssemblyPII: 84.892 [ms]
GAMG:  Solving for p, Initial residual = 0.07271963107921224, Final residual = 0.0005079972290774272, No Iterations 6
[INFO] SolveP: 593.146 [ms]
time step continuity errors : sum local = 0.003909032226917491, global = -3.541533188252124e-05, cumulative = -0.0001192122318009655
[INFO] postSolveP: 44.681 [ms]
smoothSolver:  Solving for nuTilda, Initial residual = 0.06540604655841563, Final residual = 0.005857001201928756, No Iterations 2
[INFO] TimeStep: 3442.757 [ms]
ExecutionTime = 53.25 s  ClockTime = 54 s

Time = 9

velocityDampingConstraint velocityDamping damped 0 (0%) of cells, with max limit 300
[INFO] MatrixAssemblyU: 1076.227 [ms]
smoothSolver:  Solving for Ux, Initial residual = 0.02038159210440549, Final residual = 0.001902009762756212, No Iterations 12
smoothSolver:  Solving for Uy, Initial residual = 0.05442342607560499, Final residual = 0.005436823524811002, No Iterations 12
smoothSolver:  Solving for Uz, Initial residual = 0.05527384725985802, Final residual = 0.005135813477681315, No Iterations 12
[INFO] MomentumPredictor: 836.603 [ms]
[INFO] MatrixAssemblyPI: 170.265 [ms]
[INFO] MatrixAssemblyPII: 85.258 [ms]
GAMG:  Solving for p, Initial residual = 0.06729747595612837, Final residual = 0.0006342755803153298, No Iterations 5
[INFO] SolveP: 503.779 [ms]
time step continuity errors : sum local = 0.004872099392653261, global = -2.652768488030008e-05, cumulative = -0.0001457399166812656
[INFO] postSolveP: 44.795 [ms]
smoothSolver:  Solving for nuTilda, Initial residual = 0.04412810831591847, Final residual = 0.003200745670697582, No Iterations 3
[INFO] TimeStep: 3374.759 [ms]
ExecutionTime = 57.47 s  ClockTime = 58 s

Time = 10

velocityDampingConstraint velocityDamping damped 0 (0%) of cells, with max limit 300
[INFO] MatrixAssemblyU: 1077.19 [ms]
smoothSolver:  Solving for Ux, Initial residual = 0.01833738940592983, Final residual = 0.001726755311261776, No Iterations 12
smoothSolver:  Solving for Uy, Initial residual = 0.05021385914702312, Final residual = 0.005003071828487568, No Iterations 12
smoothSolver:  Solving for Uz, Initial residual = 0.05054262033855036, Final residual = 0.004764830152054268, No Iterations 12
[INFO] MomentumPredictor: 835.546 [ms]
[INFO] MatrixAssemblyPI: 170.039 [ms]
[INFO] MatrixAssemblyPII: 84.931 [ms]
GAMG:  Solving for p, Initial residual = 0.06161857585604739, Final residual = 0.0006049419529751411, No Iterations 5
[INFO] SolveP: 500.506 [ms]
time step continuity errors : sum local = 0.004600913264782595, global = 1.423420511556519e-05, cumulative = -0.0001315057115657004
[INFO] postSolveP: 45.249 [ms]
smoothSolver:  Solving for nuTilda, Initial residual = 0.06977456038001471, Final residual = 0.005484840316683575, No Iterations 2
[INFO] TimeStep: 3350.257 [ms]
ExecutionTime = 61.67 s  ClockTime = 62 s

Time = 11

velocityDampingConstraint velocityDamping damped 0 (0%) of cells, with max limit 300
[INFO] MatrixAssemblyU: 1075.993 [ms]
smoothSolver:  Solving for Ux, Initial residual = 0.01669853020408592, Final residual = 0.001604837245166364, No Iterations 12
smoothSolver:  Solving for Uy, Initial residual = 0.0474410288020989, Final residual = 0.004690724852757643, No Iterations 12
smoothSolver:  Solving for Uz, Initial residual = 0.0473744725982335, Final residual = 0.004494886825015233, No Iterations 12
[INFO] MomentumPredictor: 837.9450000000001 [ms]
[INFO] MatrixAssemblyPI: 170.488 [ms]
[INFO] MatrixAssemblyPII: 84.965 [ms]
GAMG:  Solving for p, Initial residual = 0.05708679992209114, Final residual = 0.0003609461063477325, No Iterations 6
[INFO] SolveP: 589.655 [ms]
time step continuity errors : sum local = 0.002763345708649391, global = 2.564110175822705e-05, cumulative = -0.0001058646098074733
[INFO] postSolveP: 44.775 [ms]
smoothSolver:  Solving for nuTilda, Initial residual = 0.03912319377951371, Final residual = 0.0030261409088502, No Iterations 3
[INFO] TimeStep: 3459.312 [ms]
ExecutionTime = 65.97 s  ClockTime = 66 s

Time = 12

velocityDampingConstraint velocityDamping damped 0 (0%) of cells, with max limit 300
[INFO] MatrixAssemblyU: 1074.401 [ms]
smoothSolver:  Solving for Ux, Initial residual = 0.01557458050548158, Final residual = 0.001519442321954028, No Iterations 12
smoothSolver:  Solving for Uy, Initial residual = 0.04542349885574548, Final residual = 0.00446088516377482, No Iterations 12
smoothSolver:  Solving for Uz, Initial residual = 0.044949130663627, Final residual = 0.004285003796196173, No Iterations 12
[INFO] MomentumPredictor: 834.001 [ms]
[INFO] MatrixAssemblyPI: 170.878 [ms]
[INFO] MatrixAssemblyPII: 84.634 [ms]
GAMG:  Solving for p, Initial residual = 0.05300826816202108, Final residual = 0.0003321887545081938, No Iterations 6
[INFO] SolveP: 591.587 [ms]
time step continuity errors : sum local = 0.002562942647718405, global = 3.364070661683407e-05, cumulative = -7.222390319063928e-05
[INFO] postSolveP: 45.005 [ms]
smoothSolver:  Solving for nuTilda, Initial residual = 0.06554148918094903, Final residual = 0.005099780375737993, No Iterations 2
[INFO] TimeStep: 3436.246 [ms]
ExecutionTime = 70.25 s  ClockTime = 71 s

Time = 13

velocityDampingConstraint velocityDamping damped 0 (0%) of cells, with max limit 300
[INFO] MatrixAssemblyU: 1072.724 [ms]
smoothSolver:  Solving for Ux, Initial residual = 0.01453764445797127, Final residual = 0.001444548484393449, No Iterations 12
smoothSolver:  Solving for Uy, Initial residual = 0.04350686122063435, Final residual = 0.004263752781955118, No Iterations 12
smoothSolver:  Solving for Uz, Initial residual = 0.04309199042940229, Final residual = 0.004136425005583232, No Iterations 12
[INFO] MomentumPredictor: 838.059 [ms]
[INFO] MatrixAssemblyPI: 170.39 [ms]
[INFO] MatrixAssemblyPII: 85.04000000000001 [ms]
GAMG:  Solving for p, Initial residual = 0.049742241467418, Final residual = 0.0003193387629048969, No Iterations 6
[INFO] SolveP: 590.366 [ms]
time step continuity errors : sum local = 0.002479261425242436, global = 2.49218565978513e-05, cumulative = -4.730204659278798e-05
[INFO] postSolveP: 45.129 [ms]
smoothSolver:  Solving for nuTilda, Initial residual = 0.03468475275949285, Final residual = 0.002829050227029762, No Iterations 3
[INFO] TimeStep: 3455.537 [ms]
ExecutionTime = 74.56 s  ClockTime = 75 s

Time = 14

velocityDampingConstraint velocityDamping damped 0 (0%) of cells, with max limit 300
[INFO] MatrixAssemblyU: 1072.972 [ms]
smoothSolver:  Solving for Ux, Initial residual = 0.01370244121703013, Final residual = 0.001172862919969902, No Iterations 13
smoothSolver:  Solving for Uy, Initial residual = 0.04167986680988119, Final residual = 0.004094766737528841, No Iterations 12
smoothSolver:  Solving for Uz, Initial residual = 0.04204837068110689, Final residual = 0.004056285944566688, No Iterations 12
[INFO] MomentumPredictor: 854.997 [ms]
[INFO] MatrixAssemblyPI: 170.531 [ms]
[INFO] MatrixAssemblyPII: 86.46599999999999 [ms]
GAMG:  Solving for p, Initial residual = 0.04731420830416394, Final residual = 0.0003043462934008837, No Iterations 6
[INFO] SolveP: 594.669 [ms]
time step continuity errors : sum local = 0.002373424911308247, global = 1.467823553469972e-05, cumulative = -3.262381105808826e-05
[INFO] postSolveP: 45.219 [ms]
smoothSolver:  Solving for nuTilda, Initial residual = 0.05812589092756539, Final residual = 0.004799986505269594, No Iterations 2
[INFO] TimeStep: 3459.971 [ms]
ExecutionTime = 78.86 s  ClockTime = 79 s

Time = 15

velocityDampingConstraint velocityDamping damped 0 (0%) of cells, with max limit 300
[INFO] MatrixAssemblyU: 1071.697 [ms]
smoothSolver:  Solving for Ux, Initial residual = 0.01283366399963811, Final residual = 0.001109865669005672, No Iterations 13
smoothSolver:  Solving for Uy, Initial residual = 0.04024777591832802, Final residual = 0.003980039928545688, No Iterations 12
smoothSolver:  Solving for Uz, Initial residual = 0.04168499766411043, Final residual = 0.004045854739594253, No Iterations 12
[INFO] MomentumPredictor: 858.188 [ms]
[INFO] MatrixAssemblyPI: 171.03 [ms]
[INFO] MatrixAssemblyPII: 84.916 [ms]
GAMG:  Solving for p, Initial residual = 0.04571218748408381, Final residual = 0.0003009093932870747, No Iterations 6
[INFO] SolveP: 590.83 [ms]
time step continuity errors : sum local = 0.00235767178513398, global = -1.143110234741e-07, cumulative = -3.273812208156236e-05
[INFO] postSolveP: 45.138 [ms]
smoothSolver:  Solving for nuTilda, Initial residual = 0.03130793314693679, Final residual = 0.002662146073591776, No Iterations 3
[INFO] TimeStep: 3477.099 [ms]
ExecutionTime = 83.18000000000001 s  ClockTime = 84 s

Time = 16

velocityDampingConstraint velocityDamping damped 0 (0%) of cells, with max limit 300
[INFO] MatrixAssemblyU: 1069.234 [ms]
smoothSolver:  Solving for Ux, Initial residual = 0.01219312471339192, Final residual = 0.001054129692210796, No Iterations 13
smoothSolver:  Solving for Uy, Initial residual = 0.03932322957755609, Final residual = 0.00390801645283837, No Iterations 12
smoothSolver:  Solving for Uz, Initial residual = 0.04160527157798279, Final residual = 0.004050019492014441, No Iterations 12
[INFO] MomentumPredictor: 855.881 [ms]
[INFO] MatrixAssemblyPI: 170.383 [ms]
[INFO] MatrixAssemblyPII: 84.747 [ms]
GAMG:  Solving for p, Initial residual = 0.04441294648188818, Final residual = 0.0002941070824743487, No Iterations 6
[INFO] SolveP: 591.318 [ms]
time step continuity errors : sum local = 0.002312576947294028, global = -1.006023852589762e-05, cumulative = -4.279836060745998e-05
[INFO] postSolveP: 44.952 [ms]
smoothSolver:  Solving for nuTilda, Initial residual = 0.05168021162758568, Final residual = 0.004551244845667743, No Iterations 2
[INFO] TimeStep: 3450.172 [ms]
ExecutionTime = 87.48 s  ClockTime = 88 s

Time = 17

velocityDampingConstraint velocityDamping damped 0 (0%) of cells, with max limit 300
[INFO] MatrixAssemblyU: 1069.228 [ms]
smoothSolver:  Solving for Ux, Initial residual = 0.0115715648142715, Final residual = 0.001005529769349324, No Iterations 13
smoothSolver:  Solving for Uy, Initial residual = 0.03877847493504835, Final residual = 0.003875769178241577, No Iterations 12
smoothSolver:  Solving for Uz, Initial residual = 0.04155364279929601, Final residual = 0.004053399787389105, No Iterations 12
[INFO] MomentumPredictor: 857.057 [ms]
[INFO] MatrixAssemblyPI: 170.36 [ms]
[INFO] MatrixAssemblyPII: 84.884 [ms]
GAMG:  Solving for p, Initial residual = 0.04392127197366402, Final residual = 0.0002961969200578592, No Iterations 6
[INFO] SolveP: 590.8390000000001 [ms]
time step continuity errors : sum local = 0.002343307790557611, global = -1.631889379623421e-05, cumulative = -5.911725440369419e-05
[INFO] postSolveP: 44.825 [ms]
smoothSolver:  Solving for nuTilda, Initial residual = 0.02882433063389788, Final residual = 0.002513308233982745, No Iterations 3
[INFO] TimeStep: 3470.396 [ms]
ExecutionTime = 91.79000000000001 s  ClockTime = 92 s

Time = 18

velocityDampingConstraint velocityDamping damped 0 (0%) of cells, with max limit 300
[INFO] MatrixAssemblyU: 1068.699 [ms]
smoothSolver:  Solving for Ux, Initial residual = 0.0112246845064692, Final residual = 0.000965587448985331, No Iterations 13
smoothSolver:  Solving for Uy, Initial residual = 0.03863744964696778, Final residual = 0.003304004660755421, No Iterations 13
smoothSolver:  Solving for Uz, Initial residual = 0.0417448497614231, Final residual = 0.004057584184360062, No Iterations 12
[INFO] MomentumPredictor: 874.598 [ms]
[INFO] MatrixAssemblyPI: 169.738 [ms]
[INFO] MatrixAssemblyPII: 84.395 [ms]
GAMG:  Solving for p, Initial residual = 0.04380736304712794, Final residual = 0.0002942555397991286, No Iterations 6
[INFO] SolveP: 595.735 [ms]
time step continuity errors : sum local = 0.00234308565067888, global = -1.129448839562195e-05, cumulative = -7.041174279931614e-05
[INFO] postSolveP: 44.762 [ms]
smoothSolver:  Solving for nuTilda, Initial residual = 0.04634691190914977, Final residual = 0.004300794002361692, No Iterations 2
[INFO] TimeStep: 3470.929 [ms]
ExecutionTime = 96.09 s  ClockTime = 97 s

Time = 19

velocityDampingConstraint velocityDamping damped 0 (0%) of cells, with max limit 300
[INFO] MatrixAssemblyU: 1067.292 [ms]
smoothSolver:  Solving for Ux, Initial residual = 0.01087315133973577, Final residual = 0.0009352939601200019, No Iterations 13
smoothSolver:  Solving for Uy, Initial residual = 0.03891104413554444, Final residual = 0.003322486731880009, No Iterations 13
smoothSolver:  Solving for Uz, Initial residual = 0.04251435314824265, Final residual = 0.004104721527845202, No Iterations 12
[INFO] MomentumPredictor: 877.796 [ms]
[INFO] MatrixAssemblyPI: 170.472 [ms]
[INFO] MatrixAssemblyPII: 84.919 [ms]
GAMG:  Solving for p, Initial residual = 0.04402148442789961, Final residual = 0.0002773221156737301, No Iterations 6
[INFO] SolveP: 591.067 [ms]
time step continuity errors : sum local = 0.002222490670510112, global = 1.182101126605804e-06, cumulative = -6.922964167271034e-05
[INFO] postSolveP: 44.892 [ms]
smoothSolver:  Solving for nuTilda, Initial residual = 0.02688469342040547, Final residual = 0.002364297434995897, No Iterations 3
[INFO] TimeStep: 3488.806 [ms]
ExecutionTime = 100.42 s  ClockTime = 101 s

Time = 20

velocityDampingConstraint velocityDamping damped 0 (0%) of cells, with max limit 300
[INFO] MatrixAssemblyU: 1066.186 [ms]
smoothSolver:  Solving for Ux, Initial residual = 0.01069738200404969, Final residual = 0.0009161042143241574, No Iterations 13
smoothSolver:  Solving for Uy, Initial residual = 0.03930041177993115, Final residual = 0.003921268164572117, No Iterations 12
smoothSolver:  Solving for Uz, Initial residual = 0.04313187710530237, Final residual = 0.00413882810084585, No Iterations 12
[INFO] MomentumPredictor: 855.509 [ms]
[INFO] MatrixAssemblyPI: 169.742 [ms]
[INFO] MatrixAssemblyPII: 84.57899999999999 [ms]
GAMG:  Solving for p, Initial residual = 0.04391812874873433, Final residual = 0.0002599407061310069, No Iterations 6
[INFO] SolveP: 592.394 [ms]
time step continuity errors : sum local = 0.002102165108956059, global = 1.309695304801625e-05, cumulative = -5.613268862469409e-05
[INFO] postSolveP: 44.785 [ms]
smoothSolver:  Solving for nuTilda, Initial residual = 0.04180725279705351, Final residual = 0.004047471067232505, No Iterations 2
[INFO] TimeStep: 3446.574 [ms]
ExecutionTime = 104.71 s  ClockTime = 105 s

Time = 21

velocityDampingConstraint velocityDamping damped 0 (0%) of cells, with max limit 300
[INFO] MatrixAssemblyU: 1066.115 [ms]
smoothSolver:  Solving for Ux, Initial residual = 0.01049080283992548, Final residual = 0.0009025239785999288, No Iterations 13
smoothSolver:  Solving for Uy, Initial residual = 0.03992626984368299, Final residual = 0.00396977496697491, No Iterations 12
smoothSolver:  Solving for Uz, Initial residual = 0.0434629784668561, Final residual = 0.004136956427448368, No Iterations 12
[INFO] MomentumPredictor: 858.338 [ms]
[INFO] MatrixAssemblyPI: 169.842 [ms]
[INFO] MatrixAssemblyPII: 84.913 [ms]
GAMG:  Solving for p, Initial residual = 0.0439088513298845, Final residual = 0.0004379223005649541, No Iterations 5
[INFO] SolveP: 500.57 [ms]
time step continuity errors : sum local = 0.003587550063474191, global = 1.868464579500782e-05, cumulative = -3.744804282968627e-05
[INFO] postSolveP: 45.14 [ms]
smoothSolver:  Solving for nuTilda, Initial residual = 0.02512257212399216, Final residual = 0.002219093560079796, No Iterations 3
[INFO] TimeStep: 3377.138 [ms]
ExecutionTime = 108.92 s  ClockTime = 110 s

Time = 22

velocityDampingConstraint velocityDamping damped 0 (0%) of cells, with max limit 300
[INFO] MatrixAssemblyU: 1065.621 [ms]
smoothSolver:  Solving for Ux, Initial residual = 0.01046082827388808, Final residual = 0.001045598880279816, No Iterations 12
smoothSolver:  Solving for Uy, Initial residual = 0.04056682309557088, Final residual = 0.003993260659253334, No Iterations 12
smoothSolver:  Solving for Uz, Initial residual = 0.04340858348573277, Final residual = 0.004094999470592813, No Iterations 12
[INFO] MomentumPredictor: 835.984 [ms]
[INFO] MatrixAssemblyPI: 170.193 [ms]
[INFO] MatrixAssemblyPII: 84.765 [ms]
GAMG:  Solving for p, Initial residual = 0.04377400184678382, Final residual = 0.0003004916711456034, No Iterations 6
[INFO] SolveP: 591.324 [ms]
time step continuity errors : sum local = 0.002492290216342128, global = 2.578091295805986e-05, cumulative = -1.166712987162641e-05
[INFO] postSolveP: 44.772 [ms]
smoothSolver:  Solving for nuTilda, Initial residual = 0.03794447474497894, Final residual = 0.002018904906100102, No Iterations 3
[INFO] TimeStep: 3444.919 [ms]
ExecutionTime = 113.21 s  ClockTime = 114 s

Time = 23

velocityDampingConstraint velocityDamping damped 0 (0%) of cells, with max limit 300
[INFO] MatrixAssemblyU: 1066.315 [ms]
smoothSolver:  Solving for Ux, Initial residual = 0.01034801130125692, Final residual = 0.000885132436317586, No Iterations 13
smoothSolver:  Solving for Uy, Initial residual = 0.04113521289679564, Final residual = 0.003992805121526223, No Iterations 12
smoothSolver:  Solving for Uz, Initial residual = 0.04297835515067983, Final residual = 0.004010767328004044, No Iterations 12
[INFO] MomentumPredictor: 858.4059999999999 [ms]
[INFO] MatrixAssemblyPI: 170.409 [ms]
[INFO] MatrixAssemblyPII: 84.697 [ms]
GAMG:  Solving for p, Initial residual = 0.04336722367406133, Final residual = 0.0002968061448018887, No Iterations 6
[INFO] SolveP: 591.2089999999999 [ms]
time step continuity errors : sum local = 0.002507012950274242, global = 3.038155508360674e-05, cumulative = 1.871442521198034e-05
[INFO] postSolveP: 45.099 [ms]
smoothSolver:  Solving for nuTilda, Initial residual = 0.02333344882176186, Final residual = 0.002087804297999741, No Iterations 3
[INFO] TimeStep: 3468.189 [ms]
ExecutionTime = 117.52 s  ClockTime = 118 s

Time = 24

velocityDampingConstraint velocityDamping damped 0 (0%) of cells, with max limit 300
[INFO] MatrixAssemblyU: 1066.802 [ms]
smoothSolver:  Solving for Ux, Initial residual = 0.01036496713460792, Final residual = 0.001030934829763748, No Iterations 12
smoothSolver:  Solving for Uy, Initial residual = 0.0418509684001161, Final residual = 0.004032125240668348, No Iterations 12
smoothSolver:  Solving for Uz, Initial residual = 0.04254540183950906, Final residual = 0.003935671365401665, No Iterations 12
[INFO] MomentumPredictor: 833.404 [ms]
[INFO] MatrixAssemblyPI: 170.322 [ms]
[INFO] MatrixAssemblyPII: 84.73699999999999 [ms]
GAMG:  Solving for p, Initial residual = 0.04295519028941194, Final residual = 0.0002883264595298205, No Iterations 6
[INFO] SolveP: 591.318 [ms]
time step continuity errors : sum local = 0.002475792157202989, global = 3.149433887284228e-05, cumulative = 5.020876408482262e-05
[INFO] postSolveP: 44.579 [ms]
smoothSolver:  Solving for nuTilda, Initial residual = 0.03444677340763322, Final residual = 0.00190961656159877, No Iterations 3
[INFO] TimeStep: 3443.927 [ms]
ExecutionTime = 121.79 s  ClockTime = 123 s

Time = 25

velocityDampingConstraint velocityDamping damped 0 (0%) of cells, with max limit 300
[INFO] MatrixAssemblyU: 1066.48 [ms]
smoothSolver:  Solving for Ux, Initial residual = 0.01030253545781456, Final residual = 0.0008814692740990675, No Iterations 13
smoothSolver:  Solving for Uy, Initial residual = 0.04268852226205956, Final residual = 0.00412469104973425, No Iterations 12
smoothSolver:  Solving for Uz, Initial residual = 0.04229324338801541, Final residual = 0.003902042953558317, No Iterations 12
[INFO] MomentumPredictor: 856.8869999999999 [ms]
[INFO] MatrixAssemblyPI: 170.008 [ms]
[INFO] MatrixAssemblyPII: 84.839 [ms]
GAMG:  Solving for p, Initial residual = 0.04229131825678089, Final residual = 0.0002865436305235853, No Iterations 6
[INFO] SolveP: 590.792 [ms]
time step continuity errors : sum local = 0.002503244225671934, global = 3.59997934113108e-05, cumulative = 8.620855749613342e-05
[INFO] postSolveP: 44.892 [ms]
smoothSolver:  Solving for nuTilda, Initial residual = 0.02149440552661282, Final residual = 0.00195659863470283, No Iterations 3
[INFO] TimeStep: 3464.917 [ms]
ExecutionTime = 126.1 s  ClockTime = 127 s

Time = 26

velocityDampingConstraint velocityDamping damped 0 (0%) of cells, with max limit 300
[INFO] MatrixAssemblyU: 1065.244 [ms]
smoothSolver:  Solving for Ux, Initial residual = 0.01037429325188195, Final residual = 0.001033773121478984, No Iterations 12
smoothSolver:  Solving for Uy, Initial residual = 0.04362693652111656, Final residual = 0.004274560975352244, No Iterations 12
smoothSolver:  Solving for Uz, Initial residual = 0.04229000919879177, Final residual = 0.003946064386632927, No Iterations 12
[INFO] MomentumPredictor: 836.362 [ms]
[INFO] MatrixAssemblyPI: 170.283 [ms]
[INFO] MatrixAssemblyPII: 84.51900000000001 [ms]
GAMG:  Solving for p, Initial residual = 0.0418527829968053, Final residual = 0.000300137267228352, No Iterations 6
[INFO] SolveP: 591.965 [ms]
time step continuity errors : sum local = 0.002656717333228562, global = 3.638109702194944e-05, cumulative = 0.0001225896545180828
[INFO] postSolveP: 44.609 [ms]
smoothSolver:  Solving for nuTilda, Initial residual = 0.03147795853661771, Final residual = 0.001803934203422412, No Iterations 3
[INFO] TimeStep: 3444.191 [ms]
ExecutionTime = 130.38 s  ClockTime = 131 s

Time = 27

velocityDampingConstraint velocityDamping damped 0 (0%) of cells, with max limit 300
[INFO] MatrixAssemblyU: 1064.928 [ms]
smoothSolver:  Solving for Ux, Initial residual = 0.01037309003984363, Final residual = 0.001035164386369821, No Iterations 12
smoothSolver:  Solving for Uy, Initial residual = 0.04465321906319857, Final residual = 0.00444219088913958, No Iterations 12
smoothSolver:  Solving for Uz, Initial residual = 0.042577606887014, Final residual = 0.004028306691170226, No Iterations 12
[INFO] MomentumPredictor: 838.25 [ms]
[INFO] MatrixAssemblyPI: 169.934 [ms]
[INFO] MatrixAssemblyPII: 84.69499999999999 [ms]
GAMG:  Solving for p, Initial residual = 0.04206214215398944, Final residual = 0.0003039767816899958, No Iterations 6
[INFO] SolveP: 593.269 [ms]
time step continuity errors : sum local = 0.002727809808773574, global = 3.922803551460457e-05, cumulative = 0.0001618176900326874
[INFO] postSolveP: 44.716 [ms]
smoothSolver:  Solving for nuTilda, Initial residual = 0.0198210351343623, Final residual = 0.001831289472785607, No Iterations 3
[INFO] TimeStep: 3448.137 [ms]
ExecutionTime = 134.67 s  ClockTime = 135 s

Time = 28

velocityDampingConstraint velocityDamping damped 0 (0%) of cells, with max limit 300
[INFO] MatrixAssemblyU: 1064.164 [ms]
smoothSolver:  Solving for Ux, Initial residual = 0.01051672833171727, Final residual = 0.001038624241383983, No Iterations 12
smoothSolver:  Solving for Uy, Initial residual = 0.04600707525459495, Final residual = 0.003942358117622803, No Iterations 13
smoothSolver:  Solving for Uz, Initial residual = 0.04357818169304325, Final residual = 0.004139583708006512, No Iterations 12
[INFO] MomentumPredictor: 854.0359999999999 [ms]
[INFO] MatrixAssemblyPI: 170.491 [ms]
[INFO] MatrixAssemblyPII: 84.86199999999999 [ms]
GAMG:  Solving for p, Initial residual = 0.04293956781132215, Final residual = 0.0003043856717174724, No Iterations 6
[INFO] SolveP: 595.833 [ms]
time step continuity errors : sum local = 0.002769281526305995, global = 3.80375600556099e-05, cumulative = 0.0001998552500882973
[INFO] postSolveP: 45.016 [ms]
smoothSolver:  Solving for nuTilda, Initial residual = 0.02894394473595834, Final residual = 0.001697098771704742, No Iterations 3
[INFO] TimeStep: 3465.377 [ms]
ExecutionTime = 138.97 s  ClockTime = 140 s

Time = 29

velocityDampingConstraint velocityDamping damped 0 (0%) of cells, with max limit 300
[INFO] MatrixAssemblyU: 1063.45 [ms]
smoothSolver:  Solving for Ux, Initial residual = 0.01055461816341523, Final residual = 0.001040610502609611, No Iterations 12
smoothSolver:  Solving for Uy, Initial residual = 0.0475791974651853, Final residual = 0.004078393122217392, No Iterations 13
smoothSolver:  Solving for Uz, Initial residual = 0.0450103513770336, Final residual = 0.004279474579471435, No Iterations 12
[INFO] MomentumPredictor: 857.809 [ms]
[INFO] MatrixAssemblyPI: 169.646 [ms]
[INFO] MatrixAssemblyPII: 84.60599999999999 [ms]
GAMG:  Solving for p, Initial residual = 0.04390087463243244, Final residual = 0.0002985331380340152, No Iterations 6
[INFO] SolveP: 590.968 [ms]
time step continuity errors : sum local = 0.002752893458920807, global = 3.860701490450571e-05, cumulative = 0.000238462264992803
[INFO] postSolveP: 44.91 [ms]
smoothSolver:  Solving for nuTilda, Initial residual = 0.01833822662428404, Final residual = 0.001708065389184896, No Iterations 3
[INFO] TimeStep: 3462.543 [ms]
ExecutionTime = 143.27 s  ClockTime = 144 s

Time = 30

velocityDampingConstraint velocityDamping damped 0 (0%) of cells, with max limit 300
[INFO] MatrixAssemblyU: 1062.286 [ms]
smoothSolver:  Solving for Ux, Initial residual = 0.01074956641858411, Final residual = 0.001046956880202571, No Iterations 12
smoothSolver:  Solving for Uy, Initial residual = 0.04963891939145768, Final residual = 0.004224460421205643, No Iterations 13
smoothSolver:  Solving for Uz, Initial residual = 0.04659116634122739, Final residual = 0.004411568854782786, No Iterations 12
[INFO] MomentumPredictor: 857.625 [ms]
[INFO] MatrixAssemblyPI: 170.086 [ms]
[INFO] MatrixAssemblyPII: 84.68899999999999 [ms]
GAMG:  Solving for p, Initial residual = 0.04479888163048767, Final residual = 0.0002886763342123723, No Iterations 6
[INFO] SolveP: 595.812 [ms]
time step continuity errors : sum local = 0.002698883497887096, global = 3.561890713007021e-05, cumulative = 0.0002740811721228733
[INFO] postSolveP: 44.857 [ms]
smoothSolver:  Solving for nuTilda, Initial residual = 0.02675660905500379, Final residual = 0.001590200047052308, No Iterations 3
[INFO] TimeStep: 3466.833 [ms]
ExecutionTime = 147.57 s  ClockTime = 148 s

Time = 31

velocityDampingConstraint velocityDamping damped 0 (0%) of cells, with max limit 300
[INFO] MatrixAssemblyU: 1060.898 [ms]
smoothSolver:  Solving for Ux, Initial residual = 0.01082228888272673, Final residual = 0.00105356742588384, No Iterations 12
smoothSolver:  Solving for Uy, Initial residual = 0.0519711863031692, Final residual = 0.005168248957475799, No Iterations 12
smoothSolver:  Solving for Uz, Initial residual = 0.04829208186300363, Final residual = 0.004564782414682007, No Iterations 12
[INFO] MomentumPredictor: 839.319 [ms]
[INFO] MatrixAssemblyPI: 169.549 [ms]
[INFO] MatrixAssemblyPII: 84.785 [ms]
GAMG:  Solving for p, Initial residual = 0.0460152497160537, Final residual = 0.0002827341975459947, No Iterations 6
[INFO] SolveP: 596.389 [ms]
time step continuity errors : sum local = 0.002675440374375298, global = 3.528663956361669e-05, cumulative = 0.0003093678116864899
[INFO] postSolveP: 44.718 [ms]
smoothSolver:  Solving for nuTilda, Initial residual = 0.01707020153676134, Final residual = 0.001589712475828458, No Iterations 3
[INFO] TimeStep: 3445.631 [ms]
ExecutionTime = 151.85 s  ClockTime = 153 s

Time = 32

velocityDampingConstraint velocityDamping damped 0 (0%) of cells, with max limit 300
[INFO] MatrixAssemblyU: 1060.929 [ms]
smoothSolver:  Solving for Ux, Initial residual = 0.01095038698385323, Final residual = 0.001060570210269558, No Iterations 12
smoothSolver:  Solving for Uy, Initial residual = 0.05439047784763178, Final residual = 0.00540475077663679, No Iterations 12
smoothSolver:  Solving for Uz, Initial residual = 0.04984207387714164, Final residual = 0.004767020214149706, No Iterations 12
[INFO] MomentumPredictor: 837.001 [ms]
[INFO] MatrixAssemblyPI: 169.961 [ms]
[INFO] MatrixAssemblyPII: 84.461 [ms]
GAMG:  Solving for p, Initial residual = 0.04759566217098952, Final residual = 0.0002826554516654698, No Iterations 6
[INFO] SolveP: 591.46 [ms]
time step continuity errors : sum local = 0.00270172532650421, global = 3.468157907540496e-05, cumulative = 0.0003440493907618949
[INFO] postSolveP: 44.732 [ms]
smoothSolver:  Solving for nuTilda, Initial residual = 0.02485191614426279, Final residual = 0.001488123917055814, No Iterations 3
[INFO] TimeStep: 3438.773 [ms]
ExecutionTime = 156.12 s  ClockTime = 157 s

Time = 33

velocityDampingConstraint velocityDamping damped 0 (0%) of cells, with max limit 300
[INFO] MatrixAssemblyU: 1059.621 [ms]
smoothSolver:  Solving for Ux, Initial residual = 0.01090999503817819, Final residual = 0.001066972014073814, No Iterations 12
smoothSolver:  Solving for Uy, Initial residual = 0.05673526197988367, Final residual = 0.005634601049795623, No Iterations 12
smoothSolver:  Solving for Uz, Initial residual = 0.05200488326057037, Final residual = 0.005043017023849093, No Iterations 12
[INFO] MomentumPredictor: 837.042 [ms]
[INFO] MatrixAssemblyPI: 170.284 [ms]
[INFO] MatrixAssemblyPII: 85.005 [ms]
GAMG:  Solving for p, Initial residual = 0.04958424402257131, Final residual = 0.0002850526425422617, No Iterations 6
[INFO] SolveP: 589.42 [ms]
time step continuity errors : sum local = 0.002748752680013364, global = 3.478048874631052e-05, cumulative = 0.0003788298795082054
[INFO] postSolveP: 44.784 [ms]
smoothSolver:  Solving for nuTilda, Initial residual = 0.01598617899126347, Final residual = 0.001480503686909641, No Iterations 3
[INFO] TimeStep: 3435.22 [ms]
ExecutionTime = 160.38 s  ClockTime = 161 s

Time = 34

velocityDampingConstraint velocityDamping damped 0 (0%) of cells, with max limit 300
[INFO] MatrixAssemblyU: 1057.738 [ms]
smoothSolver:  Solving for Ux, Initial residual = 0.01103542368863981, Final residual = 0.001077511577530069, No Iterations 12
smoothSolver:  Solving for Uy, Initial residual = 0.05929784853675872, Final residual = 0.005888825825115219, No Iterations 12
smoothSolver:  Solving for Uz, Initial residual = 0.05451399045244221, Final residual = 0.005339093545192503, No Iterations 12
[INFO] MomentumPredictor: 837.897 [ms]
[INFO] MatrixAssemblyPI: 170.435 [ms]
[INFO] MatrixAssemblyPII: 84.43300000000001 [ms]
GAMG:  Solving for p, Initial residual = 0.05175795736785006, Final residual = 0.0005099513446286724, No Iterations 5
[INFO] SolveP: 500.254 [ms]
time step continuity errors : sum local = 0.004960129734669735, global = 3.548804573154223e-05, cumulative = 0.0004143179252397476
[INFO] postSolveP: 44.571 [ms]
smoothSolver:  Solving for nuTilda, Initial residual = 0.02320885066269058, Final residual = 0.001394135277321713, No Iterations 3
[INFO] TimeStep: 3344.326 [ms]
ExecutionTime = 164.56 s  ClockTime = 165 s

Time = 35

velocityDampingConstraint velocityDamping damped 0 (0%) of cells, with max limit 300
[INFO] MatrixAssemblyU: 1059.599 [ms]
smoothSolver:  Solving for Ux, Initial residual = 0.01110450243017057, Final residual = 0.001090893390080423, No Iterations 12
smoothSolver:  Solving for Uy, Initial residual = 0.06181759189735248, Final residual = 0.006179599536277324, No Iterations 12
smoothSolver:  Solving for Uz, Initial residual = 0.05705446786421165, Final residual = 0.005605781615083833, No Iterations 12
[INFO] MomentumPredictor: 838.606 [ms]
[INFO] MatrixAssemblyPI: 170.442 [ms]
[INFO] MatrixAssemblyPII: 84.41800000000001 [ms]
GAMG:  Solving for p, Initial residual = 0.05359540781365771, Final residual = 0.00052443483218028, No Iterations 5
[INFO] SolveP: 501.486 [ms]
time step continuity errors : sum local = 0.005149070318811959, global = 4.094716317937006e-05, cumulative = 0.0004552650884191177
[INFO] postSolveP: 44.842 [ms]
smoothSolver:  Solving for nuTilda, Initial residual = 0.01502269456159734, Final residual = 0.001382775485689789, No Iterations 3
[INFO] TimeStep: 3348.27 [ms]
ExecutionTime = 168.74 s  ClockTime = 170 s

Time = 36

velocityDampingConstraint velocityDamping damped 0 (0%) of cells, with max limit 300
[INFO] MatrixAssemblyU: 1057.004 [ms]
smoothSolver:  Solving for Ux, Initial residual = 0.01138065261016221, Final residual = 0.001112040993104973, No Iterations 12
smoothSolver:  Solving for Uy, Initial residual = 0.06404486518554008, Final residual = 0.005541937951313901, No Iterations 13
smoothSolver:  Solving for Uz, Initial residual = 0.05968242151523336, Final residual = 0.005859210429972948, No Iterations 12
[INFO] MomentumPredictor: 855.572 [ms]
[INFO] MatrixAssemblyPI: 170.43 [ms]
[INFO] MatrixAssemblyPII: 84.38200000000001 [ms]
GAMG:  Solving for p, Initial residual = 0.05510307148366232, Final residual = 0.0004918042450674606, No Iterations 5
[INFO] SolveP: 501.669 [ms]
time step continuity errors : sum local = 0.004860860497210409, global = 4.304003548020896e-05, cumulative = 0.0004983051238993267
[INFO] postSolveP: 44.833 [ms]
smoothSolver:  Solving for nuTilda, Initial residual = 0.02179301070648186, Final residual = 0.001307899819038344, No Iterations 3
[INFO] TimeStep: 3362.873 [ms]
ExecutionTime = 172.93 s  ClockTime = 174 s

Time = 37

velocityDampingConstraint velocityDamping damped 0 (0%) of cells, with max limit 300
[INFO] MatrixAssemblyU: 1056.213 [ms]
smoothSolver:  Solving for Ux, Initial residual = 0.01159565802484078, Final residual = 0.001138338473882286, No Iterations 12
smoothSolver:  Solving for Uy, Initial residual = 0.06575018602019408, Final residual = 0.005774636733551438, No Iterations 13
smoothSolver:  Solving for Uz, Initial residual = 0.0623207785662889, Final residual = 0.006088603461005524, No Iterations 12
[INFO] MomentumPredictor: 858.098 [ms]
[INFO] MatrixAssemblyPI: 169.897 [ms]
[INFO] MatrixAssemblyPII: 84.749 [ms]
GAMG:  Solving for p, Initial residual = 0.0569056307042758, Final residual = 0.0004767232309590179, No Iterations 5
[INFO] SolveP: 500.301 [ms]
time step continuity errors : sum local = 0.004744170776512967, global = 4.402447488923247e-05, cumulative = 0.0005423295987885591
[INFO] postSolveP: 45.365 [ms]
smoothSolver:  Solving for nuTilda, Initial residual = 0.01419845127360178, Final residual = 0.001295521507391182, No Iterations 3
[INFO] TimeStep: 3363.338 [ms]
ExecutionTime = 177.12 s  ClockTime = 178 s

Time = 38

velocityDampingConstraint velocityDamping damped 0 (0%) of cells, with max limit 300
[INFO] MatrixAssemblyU: 1055.316 [ms]
smoothSolver:  Solving for Ux, Initial residual = 0.01190964900728572, Final residual = 0.00116101634175666, No Iterations 12
smoothSolver:  Solving for Uy, Initial residual = 0.06719091818958804, Final residual = 0.005952214887877562, No Iterations 13
smoothSolver:  Solving for Uz, Initial residual = 0.06506970532679129, Final residual = 0.006287601785939547, No Iterations 12
[INFO] MomentumPredictor: 856.155 [ms]
[INFO] MatrixAssemblyPI: 170.065 [ms]
[INFO] MatrixAssemblyPII: 84.776 [ms]
GAMG:  Solving for p, Initial residual = 0.05772312708878508, Final residual = 0.0004979077110115646, No Iterations 5
[INFO] SolveP: 500.765 [ms]
time step continuity errors : sum local = 0.004983246466345986, global = 3.41725933458539e-05, cumulative = 0.000576502192134413
[INFO] postSolveP: 44.701 [ms]
smoothSolver:  Solving for nuTilda, Initial residual = 0.02056379093675379, Final residual = 0.001231965399876318, No Iterations 3
[INFO] TimeStep: 3358.483 [ms]
ExecutionTime = 181.3 s  ClockTime = 182 s

Time = 39

velocityDampingConstraint velocityDamping damped 0 (0%) of cells, with max limit 300
[INFO] MatrixAssemblyU: 1055.506 [ms]
smoothSolver:  Solving for Ux, Initial residual = 0.01199793881728879, Final residual = 0.001173455197739202, No Iterations 12
smoothSolver:  Solving for Uy, Initial residual = 0.06862620318479606, Final residual = 0.006112042528118877, No Iterations 13
smoothSolver:  Solving for Uz, Initial residual = 0.06752187211080563, Final residual = 0.006502440779939988, No Iterations 12
[INFO] MomentumPredictor: 858.027 [ms]
[INFO] MatrixAssemblyPI: 170.616 [ms]
[INFO] MatrixAssemblyPII: 85.22799999999999 [ms]
GAMG:  Solving for p, Initial residual = 0.05790537092128581, Final residual = 0.0005277987593461478, No Iterations 5
[INFO] SolveP: 501.377 [ms]
time step continuity errors : sum local = 0.005304127676300837, global = 2.075993596542396e-05, cumulative = 0.0005972621280998369
[INFO] postSolveP: 44.744 [ms]
smoothSolver:  Solving for nuTilda, Initial residual = 0.01353256349080193, Final residual = 0.001221294756977198, No Iterations 3
[INFO] TimeStep: 3362.698 [ms]
ExecutionTime = 185.49 s  ClockTime = 187 s

Time = 40

velocityDampingConstraint velocityDamping damped 0 (0%) of cells, with max limit 300
[INFO] MatrixAssemblyU: 1053.457 [ms]
smoothSolver:  Solving for Ux, Initial residual = 0.01212846086625122, Final residual = 0.001183081740530918, No Iterations 12
smoothSolver:  Solving for Uy, Initial residual = 0.06969340302945704, Final residual = 0.006263071090162454, No Iterations 13
smoothSolver:  Solving for Uz, Initial residual = 0.06921264566934611, Final residual = 0.00672617828583826, No Iterations 12
[INFO] MomentumPredictor: 854.12 [ms]
[INFO] MatrixAssemblyPI: 170.144 [ms]
[INFO] MatrixAssemblyPII: 85.006 [ms]
GAMG:  Solving for p, Initial residual = 0.05800094414655186, Final residual = 0.000529775288164356, No Iterations 5
[INFO] SolveP: 500.484 [ms]
time step continuity errors : sum local = 0.005331281799538556, global = 8.599042737342496e-06, cumulative = 0.0006058611708371794
[INFO] postSolveP: 45.003 [ms]
smoothSolver:  Solving for nuTilda, Initial residual = 0.0194592283172666, Final residual = 0.001167850871655451, No Iterations 3
[INFO] TimeStep: 3355.521 [ms]
ExecutionTime = 189.68 s  ClockTime = 191 s

Time = 41

velocityDampingConstraint velocityDamping damped 0 (0%) of cells, with max limit 300
[INFO] MatrixAssemblyU: 1052.493 [ms]
smoothSolver:  Solving for Ux, Initial residual = 0.01205057217270658, Final residual = 0.001191340261292836, No Iterations 12
smoothSolver:  Solving for Uy, Initial residual = 0.07023787137373257, Final residual = 0.006407311850108901, No Iterations 13
smoothSolver:  Solving for Uz, Initial residual = 0.07025289991199989, Final residual = 0.006912063004446855, No Iterations 12
[INFO] MomentumPredictor: 856.712 [ms]
[INFO] MatrixAssemblyPI: 169.444 [ms]
[INFO] MatrixAssemblyPII: 84.72799999999999 [ms]
GAMG:  Solving for p, Initial residual = 0.05745215164797408, Final residual = 0.0004964081914212126, No Iterations 5
[INFO] SolveP: 499.871 [ms]
time step continuity errors : sum local = 0.004996665696084371, global = 3.682479225178593e-06, cumulative = 0.000609543650062358
[INFO] postSolveP: 44.554 [ms]
smoothSolver:  Solving for nuTilda, Initial residual = 0.01294754453251443, Final residual = 0.001159019650316385, No Iterations 3
[INFO] TimeStep: 3354.323 [ms]
ExecutionTime = 193.86 s  ClockTime = 195 s

Time = 42

velocityDampingConstraint velocityDamping damped 0 (0%) of cells, with max limit 300
[INFO] MatrixAssemblyU: 1053.332 [ms]
smoothSolver:  Solving for Ux, Initial residual = 0.01209177102327874, Final residual = 0.001197950884630862, No Iterations 12
smoothSolver:  Solving for Uy, Initial residual = 0.07071239153702129, Final residual = 0.006590694757591795, No Iterations 13
smoothSolver:  Solving for Uz, Initial residual = 0.07077693193061622, Final residual = 0.006017226996770329, No Iterations 13
[INFO] MomentumPredictor: 876.504 [ms]
[INFO] MatrixAssemblyPI: 169.905 [ms]
[INFO] MatrixAssemblyPII: 84.738 [ms]
GAMG:  Solving for p, Initial residual = 0.05710847902648799, Final residual = 0.000467920812676662, No Iterations 5
[INFO] SolveP: 500.63 [ms]
time step continuity errors : sum local = 0.00470055143652852, global = -3.959080650453105e-06, cumulative = 0.0006055845694119049
[INFO] postSolveP: 44.869 [ms]
smoothSolver:  Solving for nuTilda, Initial residual = 0.01844957219563477, Final residual = 0.001112482082156541, No Iterations 3
[INFO] TimeStep: 3375.329 [ms]
ExecutionTime = 198.06 s  ClockTime = 199 s

Time = 43

velocityDampingConstraint velocityDamping damped 0 (0%) of cells, with max limit 300
[INFO] MatrixAssemblyU: 1051.549 [ms]
smoothSolver:  Solving for Ux, Initial residual = 0.01200186766217759, Final residual = 0.001026075559217743, No Iterations 13
smoothSolver:  Solving for Uy, Initial residual = 0.0714470799646791, Final residual = 0.006807775239176076, No Iterations 13
smoothSolver:  Solving for Uz, Initial residual = 0.0704660250524456, Final residual = 0.006107263730137381, No Iterations 13
[INFO] MomentumPredictor: 895.588 [ms]
[INFO] MatrixAssemblyPI: 170.988 [ms]
[INFO] MatrixAssemblyPII: 84.867 [ms]
GAMG:  Solving for p, Initial residual = 0.05649337431142725, Final residual = 0.000470347111935393, No Iterations 5
[INFO] SolveP: 501.643 [ms]
time step continuity errors : sum local = 0.004702065662584617, global = -9.31012355248709e-06, cumulative = 0.0005962744458594179
[INFO] postSolveP: 44.866 [ms]
smoothSolver:  Solving for nuTilda, Initial residual = 0.01236416861720871, Final residual = 0.001102853153100859, No Iterations 3
[INFO] TimeStep: 3394.815 [ms]
ExecutionTime = 202.28 s  ClockTime = 203 s

Time = 44

velocityDampingConstraint velocityDamping damped 0 (0%) of cells, with max limit 300
[INFO] MatrixAssemblyU: 1050.817 [ms]
smoothSolver:  Solving for Ux, Initial residual = 0.01202160231852607, Final residual = 0.001034249136594667, No Iterations 13
smoothSolver:  Solving for Uy, Initial residual = 0.07189908206033396, Final residual = 0.007006574256601158, No Iterations 13
smoothSolver:  Solving for Uz, Initial residual = 0.06992177407431274, Final residual = 0.006188845138471474, No Iterations 13
[INFO] MomentumPredictor: 892.0650000000001 [ms]
[INFO] MatrixAssemblyPI: 169.928 [ms]
[INFO] MatrixAssemblyPII: 85.449 [ms]
GAMG:  Solving for p, Initial residual = 0.0560091049368445, Final residual = 0.000483948106215963, No Iterations 5
[INFO] SolveP: 500.037 [ms]
time step continuity errors : sum local = 0.004791098685678046, global = -1.340858797053254e-05, cumulative = 0.0005828658578888854
[INFO] postSolveP: 44.8 [ms]
smoothSolver:  Solving for nuTilda, Initial residual = 0.0175092024031591, Final residual = 0.00106045931330683, No Iterations 3
[INFO] TimeStep: 3389.926 [ms]
ExecutionTime = 206.5 s  ClockTime = 208 s

Time = 45

velocityDampingConstraint velocityDamping damped 0 (0%) of cells, with max limit 300
[INFO] MatrixAssemblyU: 1050.348 [ms]
smoothSolver:  Solving for Ux, Initial residual = 0.01188689759423272, Final residual = 0.001042227940988684, No Iterations 13
smoothSolver:  Solving for Uy, Initial residual = 0.07199589879496739, Final residual = 0.007130717956042332, No Iterations 13
smoothSolver:  Solving for Uz, Initial residual = 0.06915625193462287, Final residual = 0.00625748060941616, No Iterations 13
[INFO] MomentumPredictor: 895.5359999999999 [ms]
[INFO] MatrixAssemblyPI: 170.093 [ms]
[INFO] MatrixAssemblyPII: 84.858 [ms]
GAMG:  Solving for p, Initial residual = 0.0556230273372233, Final residual = 0.0004850525890585455, No Iterations 5
[INFO] SolveP: 499.688 [ms]
time step continuity errors : sum local = 0.004736124660022037, global = -2.772114306394529e-06, cumulative = 0.0005800937435824909
[INFO] postSolveP: 45.008 [ms]
smoothSolver:  Solving for nuTilda, Initial residual = 0.01180367604371549, Final residual = 0.001049242432585397, No Iterations 3
[INFO] TimeStep: 3390.745 [ms]
ExecutionTime = 210.71 s  ClockTime = 212 s

Time = 46

velocityDampingConstraint velocityDamping damped 0 (0%) of cells, with max limit 300
[INFO] MatrixAssemblyU: 1050.976 [ms]
smoothSolver:  Solving for Ux, Initial residual = 0.01176225018347452, Final residual = 0.001046023869303559, No Iterations 13
smoothSolver:  Solving for Uy, Initial residual = 0.07199213319342551, Final residual = 0.006149067289776312, No Iterations 14
smoothSolver:  Solving for Uz, Initial residual = 0.06796945344674893, Final residual = 0.006316234821239106, No Iterations 13
[INFO] MomentumPredictor: 916.534 [ms]
[INFO] MatrixAssemblyPI: 170.073 [ms]
[INFO] MatrixAssemblyPII: 84.67400000000001 [ms]
GAMG:  Solving for p, Initial residual = 0.05497921182280338, Final residual = 0.0004673007347422462, No Iterations 5
[INFO] SolveP: 501.701 [ms]
time step continuity errors : sum local = 0.004515583998529571, global = 1.513212584508844e-05, cumulative = 0.0005952258694275793
[INFO] postSolveP: 44.659 [ms]
smoothSolver:  Solving for nuTilda, Initial residual = 0.01662536658257778, Final residual = 0.00101137318001008, No Iterations 3
[INFO] TimeStep: 3413.156 [ms]
ExecutionTime = 214.95 s  ClockTime = 216 s

Time = 47

velocityDampingConstraint velocityDamping damped 0 (0%) of cells, with max limit 300
[INFO] MatrixAssemblyU: 1049.518 [ms]
smoothSolver:  Solving for Ux, Initial residual = 0.01152666551076756, Final residual = 0.001051330098641384, No Iterations 13
smoothSolver:  Solving for Uy, Initial residual = 0.07169848786062394, Final residual = 0.006153815110556422, No Iterations 14
smoothSolver:  Solving for Uz, Initial residual = 0.06669676087137605, Final residual = 0.006361272237427742, No Iterations 13
[INFO] MomentumPredictor: 915.734 [ms]
[INFO] MatrixAssemblyPI: 170.363 [ms]
[INFO] MatrixAssemblyPII: 84.69 [ms]
GAMG:  Solving for p, Initial residual = 0.05425282863510455, Final residual = 0.0004647996533620831, No Iterations 5
[INFO] SolveP: 501.768 [ms]
time step continuity errors : sum local = 0.004461854068589615, global = 3.375333144906866e-05, cumulative = 0.000628979200876648
[INFO] postSolveP: 44.9 [ms]
smoothSolver:  Solving for nuTilda, Initial residual = 0.01127878881863041, Final residual = 0.001001437085507088, No Iterations 3
[INFO] TimeStep: 3412.291 [ms]
ExecutionTime = 219.18 s  ClockTime = 220 s

Time = 48

velocityDampingConstraint velocityDamping damped 0 (0%) of cells, with max limit 300
[INFO] MatrixAssemblyU: 1048.692 [ms]
smoothSolver:  Solving for Ux, Initial residual = 0.01149038927631268, Final residual = 0.001057324622346336, No Iterations 13
smoothSolver:  Solving for Uy, Initial residual = 0.07138987403496609, Final residual = 0.006149748084718638, No Iterations 14
smoothSolver:  Solving for Uz, Initial residual = 0.06555943504248285, Final residual = 0.006354754118257873, No Iterations 13
[INFO] MomentumPredictor: 911.705 [ms]
[INFO] MatrixAssemblyPI: 169.662 [ms]
[INFO] MatrixAssemblyPII: 84.863 [ms]
GAMG:  Solving for p, Initial residual = 0.05340545465173818, Final residual = 0.0004675758115693934, No Iterations 5
[INFO] SolveP: 500.065 [ms]
time step continuity errors : sum local = 0.004456926315357747, global = 3.400351414322569e-05, cumulative = 0.0006629827150198737
[INFO] postSolveP: 44.719 [ms]
smoothSolver:  Solving for nuTilda, Initial residual = 0.01584043575373646, Final residual = 0.0009701170141138045, No Iterations 3
[INFO] TimeStep: 3404.985 [ms]
ExecutionTime = 223.41 s  ClockTime = 225 s

Time = 49

velocityDampingConstraint velocityDamping damped 0 (0%) of cells, with max limit 300
[INFO] MatrixAssemblyU: 1049.593 [ms]
smoothSolver:  Solving for Ux, Initial residual = 0.01138937484586017, Final residual = 0.001061932947113129, No Iterations 13
smoothSolver:  Solving for Uy, Initial residual = 0.07080889022329422, Final residual = 0.006128581273182766, No Iterations 14
smoothSolver:  Solving for Uz, Initial residual = 0.06455964973059168, Final residual = 0.006330029363257941, No Iterations 13
[INFO] MomentumPredictor: 913.188 [ms]
[INFO] MatrixAssemblyPI: 170.02 [ms]
[INFO] MatrixAssemblyPII: 84.586 [ms]
GAMG:  Solving for p, Initial residual = 0.05278569671904027, Final residual = 0.0004728901228336772, No Iterations 5
[INFO] SolveP: 499.231 [ms]
time step continuity errors : sum local = 0.004481037778014788, global = 2.196129797320028e-05, cumulative = 0.000684944012993074
[INFO] postSolveP: 44.684 [ms]
smoothSolver:  Solving for nuTilda, Initial residual = 0.01084098607886835, Final residual = 0.0009637156848467151, No Iterations 3
[INFO] TimeStep: 3405.683 [ms]
ExecutionTime = 227.64 s  ClockTime = 229 s

Time = 50

velocityDampingConstraint velocityDamping damped 0 (0%) of cells, with max limit 300
[INFO] MatrixAssemblyU: 1046.971 [ms]
smoothSolver:  Solving for Ux, Initial residual = 0.0113963099018743, Final residual = 0.001064222543499031, No Iterations 13
smoothSolver:  Solving for Uy, Initial residual = 0.06990273535008205, Final residual = 0.006064616659093654, No Iterations 14
smoothSolver:  Solving for Uz, Initial residual = 0.06362266508352611, Final residual = 0.006293371249465494, No Iterations 13
[INFO] MomentumPredictor: 914.42 [ms]
[INFO] MatrixAssemblyPI: 170.783 [ms]
[INFO] MatrixAssemblyPII: 84.672 [ms]
GAMG:  Solving for p, Initial residual = 0.05258819689152912, Final residual = 0.0004834819780087203, No Iterations 5
[INFO] SolveP: 503.332 [ms]
time step continuity errors : sum local = 0.004547644873418882, global = 2.661182976732604e-06, cumulative = 0.0006876051959698066
[INFO] postSolveP: 44.821 [ms]
smoothSolver:  Solving for nuTilda, Initial residual = 0.01515914946612769, Final residual = 0.0009379798539287816, No Iterations 3
[INFO] TimeStep: 3408.683 [ms]
ExecutionTime = 231.87 s  ClockTime = 233 s

End

Finalising parallel run
