/*---------------------------------------------------------------------------*\
| =========                 |                                                 |
| \\      /  F ield         | OpenFOAM: The Open Source CFD Toolbox           |
|  \\    /   O peration     | Version:  2306                                  |
|   \\  /    A nd           | Website:  www.openfoam.com                      |
|    \\/     M anipulation  |                                                 |
\*---------------------------------------------------------------------------*/
Build  : a6e826bd55-20230630 OPENFOAM=2306 version=v2306
Arch   : "LSB;label=32;scalar=64"
Exec   : simpleFoam -parallel -case /home/greole/data/code/exasim_project/micro_benchmarks/WindsorBody/workspace/7c781275cfcb1a5264b2837ea0a87bcd/case
Date   : Aug 02 2023
Time   : 13:57:00
Host   : nla-gpu2.ianm.kit.edu
PID    : 81479
I/O    : uncollated
Case   : /home/greole/data/code/exasim_project/micro_benchmarks/WindsorBody/workspace/7c781275cfcb1a5264b2837ea0a87bcd/case
nProcs : 16
Hosts  :
(
    (nla-gpu2.ianm.kit.edu 16)
)
Pstream initialized with:
    floatTransfer      : false
    nProcsSimpleSum    : 0
    nonBlockingExchange: 0 (tuning: 0)
    exchange algorithm : -1
    commsType          : nonBlocking
    polling iterations : 0
trapFpe: Floating point exception trapping enabled (FOAM_SIGFPE).
fileModificationChecking : Monitoring run-time modified files using timeStampMaster (fileModificationSkew 5, maxFileModificationPolls 20)
allowSystemOperations : Allowing user-supplied system call operations

// * * * * * * * * * * * * * * * * * * * * * * * * * * * * * * * * * * * * * //
Create time

--> FOAM Warning : 
    From void* Foam::dlLibraryTable::openLibrary(const Foam::fileName&, bool)
    in file db/dynamicLibrary/dlLibraryTable/dlLibraryTable.C at line 188
    Could not load "libpetscFoam.so"
libpetscFoam.so: cannot open shared object file: No such file or directory
Create mesh for time = 0


SIMPLE: convergence criteria
    field p	 tolerance 1e-08
    field U	 tolerance 1e-08
    field k	 tolerance 1e-08
    field omega	 tolerance 1e-08
    field nuTilda	 tolerance 1e-08

Reading field p

Reading field U

Reading/calculating face flux field phi

Selecting incompressible transport model Newtonian
Selecting turbulence model type RAS
Selecting RAS turbulence model SpalartAllmaras
Selecting patchDistMethod meshWave
ft2 term: inactive
RAS
{
    RASModel        SpalartAllmaras;
    turbulence      on;
    printCoeffs     on;
    sigmaNut        0.66666;
    kappa           0.41;
    Cb1             0.1355;
    Cb2             0.622;
    Cw2             0.3;
    Cw3             2;
    Cv1             7.1;
    Cs              0.3;
    ck              0.07000000000000001;
    ft2             false;
    Ct3             1.2;
    Ct4             0.5;
}

No MRF models present

Creating finite volume options from "system/fvOptions"

Selecting finite volume options type velocityDampingConstraint
    Source: velocityDamping
    - selecting all cells
    - selected 6307136 cell(s) with volume 27.82583051608782

Starting time loop

--> FOAM Warning : 
    From bool Foam::functionObjectList::read()
    in file db/functionObjects/functionObjectList/functionObjectList.C at line 1035
    Reading "system/controlDict" at line 2 to 41
    Entry 'lref' is not a dictionary
--> FOAM Warning : 
    From bool Foam::functionObjectList::read()
    in file db/functionObjects/functionObjectList/functionObjectList.C at line 1035
    Reading "system/controlDict" at line 2 to 41
    Entry 'Aref' is not a dictionary
--> FOAM Warning : 
    From bool Foam::functionObjectList::read()
    in file db/functionObjects/functionObjectList/functionObjectList.C at line 1035
    Reading "system/controlDict" at line 2 to 41
    Entry 'yawAngle' is not a dictionary
--> FOAM Warning : 
    From bool Foam::functionObjectList::read()
    in file db/functionObjects/functionObjectList/functionObjectList.C at line 1035
    Reading "system/controlDict" at line 2 to 41
    Entry 'lDomain' is not a dictionary
--> FOAM Warning : 
    From bool Foam::functionObjectList::read()
    in file db/functionObjects/functionObjectList/functionObjectList.C at line 1035
    Reading "system/controlDict" at line 2 to 41
    Entry 'bDomain' is not a dictionary
--> FOAM Warning : 
    From bool Foam::functionObjectList::read()
    in file db/functionObjects/functionObjectList/functionObjectList.C at line 1035
    Reading "system/controlDict" at line 2 to 41
    Entry 'hDomain' is not a dictionary
--> FOAM Warning : 
    From bool Foam::functionObjectList::read()
    in file db/functionObjects/functionObjectList/functionObjectList.C at line 1035
    Reading "system/controlDict" at line 2 to 41
    Entry 'xCenter' is not a dictionary
--> FOAM Warning : 
    From bool Foam::functionObjectList::read()
    in file db/functionObjects/functionObjectList/functionObjectList.C at line 1035
    Reading "system/controlDict" at line 2 to 41
    Entry 'yCenter' is not a dictionary
--> FOAM Warning : 
    From bool Foam::functionObjectList::read()
    in file db/functionObjects/functionObjectList/functionObjectList.C at line 1035
    Reading "system/controlDict" at line 2 to 41
    Entry 'zCenter' is not a dictionary
--> FOAM Warning : 
    From bool Foam::functionObjectList::read()
    in file db/functionObjects/functionObjectList/functionObjectList.C at line 1035
    Reading "system/controlDict" at line 2 to 41
    Entry 'inletPatch' is not a dictionary
--> FOAM Warning : 
    From bool Foam::functionObjectList::read()
    in file db/functionObjects/functionObjectList/functionObjectList.C at line 1035
    Reading "system/controlDict" at line 2 to 41
    Entry 'outletPatch' is not a dictionary
--> FOAM Warning : 
    From bool Foam::functionObjectList::read()
    in file db/functionObjects/functionObjectList/functionObjectList.C at line 1035
    Reading "system/controlDict" at line 2 to 41
    Entry 'wallPatches' is not a dictionary
--> FOAM Warning : 
    From bool Foam::functionObjectList::read()
    in file db/functionObjects/functionObjectList/functionObjectList.C at line 1035
    Reading "system/controlDict" at line 2 to 41
    Entry 'forcesWallPatches' is not a dictionary
--> FOAM Warning : 
    From bool Foam::functionObjectList::read()
    in file db/functionObjects/functionObjectList/functionObjectList.C at line 1035
    Reading "system/controlDict" at line 2 to 41
    Entry 'symmPatches' is not a dictionary
--> FOAM Warning : 
    From bool Foam::functionObjectList::read()
    in file db/functionObjects/functionObjectList/functionObjectList.C at line 1035
    Reading "system/controlDict" at line 2 to 41
    Entry 'Uinf' is not a dictionary
--> FOAM Warning : 
    From bool Foam::functionObjectList::read()
    in file db/functionObjects/functionObjectList/functionObjectList.C at line 1035
    Reading "system/controlDict" at line 2 to 41
    Entry 'UinfMag' is not a dictionary
--> FOAM Warning : 
    From bool Foam::functionObjectList::read()
    in file db/functionObjects/functionObjectList/functionObjectList.C at line 1035
    Reading "system/controlDict" at line 2 to 41
    Entry 'nu' is not a dictionary
--> FOAM Warning : 
    From bool Foam::functionObjectList::read()
    in file db/functionObjects/functionObjectList/functionObjectList.C at line 1035
    Reading "system/controlDict" at line 2 to 41
    Entry 'pref' is not a dictionary
--> FOAM Warning : 
    From bool Foam::functionObjectList::read()
    in file db/functionObjects/functionObjectList/functionObjectList.C at line 1035
    Reading "system/controlDict" at line 2 to 41
    Entry 'viscRatio' is not a dictionary
--> FOAM Warning : 
    From bool Foam::functionObjectList::read()
    in file db/functionObjects/functionObjectList/functionObjectList.C at line 1035
    Reading "system/controlDict" at line 2 to 41
    Entry 'Tu' is not a dictionary
--> FOAM Warning : 
    From bool Foam::functionObjectList::read()
    in file db/functionObjects/functionObjectList/functionObjectList.C at line 1035
    Reading "system/controlDict" at line 2 to 41
    Entry 'LESturbModel' is not a dictionary
--> FOAM Warning : 
    From bool Foam::functionObjectList::read()
    in file db/functionObjects/functionObjectList/functionObjectList.C at line 1035
    Reading "system/controlDict" at line 2 to 41
    Entry 'RASturbModel' is not a dictionary
--> FOAM Warning : 
    From bool Foam::functionObjectList::read()
    in file db/functionObjects/functionObjectList/functionObjectList.C at line 1035
    Reading "system/controlDict" at line 2 to 41
    Entry 'deltaTurb' is not a dictionary
--> FOAM Warning : 
    From bool Foam::functionObjectList::read()
    in file db/functionObjects/functionObjectList/functionObjectList.C at line 1035
    Reading "system/controlDict" at line 2 to 41
    Entry 'dt' is not a dictionary
--> FOAM Warning : 
    From bool Foam::functionObjectList::read()
    in file db/functionObjects/functionObjectList/functionObjectList.C at line 1035
    Reading "system/controlDict" at line 2 to 41
    Entry 'tAvg' is not a dictionary
--> FOAM Warning : 
    From bool Foam::functionObjectList::read()
    in file db/functionObjects/functionObjectList/functionObjectList.C at line 1035
    Reading "system/controlDict" at line 2 to 41
    Entry 'tEnd' is not a dictionary
--> FOAM Warning : 
    From bool Foam::functionObjectList::read()
    in file db/functionObjects/functionObjectList/functionObjectList.C at line 1035
    Reading "system/controlDict" at line 2 to 41
    Entry 'writeInterval_' is not a dictionary
--> FOAM Warning : 
    From bool Foam::functionObjectList::read()
    in file db/functionObjects/functionObjectList/functionObjectList.C at line 1035
    Reading "system/controlDict" at line 2 to 41
    Entry 'nCores' is not a dictionary
--> FOAM Warning : 
    From bool Foam::functionObjectList::read()
    in file db/functionObjects/functionObjectList/functionObjectList.C at line 1035
    Reading "system/controlDict" at line 2 to 41
    Entry 'interpScheme' is not a dictionary
--> FOAM Warning : 
    From bool Foam::functionObjectList::read()
    in file db/functionObjects/functionObjectList/functionObjectList.C at line 1035
    Reading "system/controlDict" at line 2 to 41
    Entry 'probeField' is not a dictionary
wallShearStress wallShearStress:
    processing wall patches: 
        Windsor_Body
        CFDWT_Floor
        Windsor_Pins
        Windsor_Base

pressure calc_cp:
    Operating mode: staticCoeff
    Not including hydrostatic effects

forceCoeffs forceCoeffsAll:
    rho: rhoInf
    Freestream density (rhoInf) set to 1
    Not including porosity effects
    magUInf: 40
    lRef   : 0.6375
    Aref   : 0.1124
    rhoInf : 1
    Selecting all coefficients
    - Drag force: Cd
    - Drag force front: Cd(f)
    - Drag force rear: Cd(r)
    - Lift force: Cl
    - Lift force front: Cl(f)
    - Lift force rear: Cl(r)
    - Pitch moment: CmPitch
    - Roll moment: CmRoll
    - Yaw moment: CmYaw
    - Side force: Cs
    - Side force front: Cs(f)
    - Side force rear: Cs(r)


forceCoeffs dragCoeffBase:
    rho: rhoInf
    Freestream density (rhoInf) set to 1
    Not including porosity effects
    magUInf: 40
    lRef   : 0.6375
    Aref   : 0.1124
    rhoInf : 1
    Selecting coefficients:
    - Drag force: Cd


Time = 1

velocityDampingConstraint velocityDamping damped 0 (0%) of cells, with max limit 300
[INFO] MatrixAssemblyU: 571.131 [ms]
smoothSolver:  Solving for Ux, Initial residual = 0.999999999999033, Final residual = 0.08731259393246379, No Iterations 15
smoothSolver:  Solving for Uy, Initial residual = 1, Final residual = 0.08968465882410542, No Iterations 31
smoothSolver:  Solving for Uz, Initial residual = 1, Final residual = 0.03285879368159803, No Iterations 2
[INFO] MomentumPredictor: 513.804 [ms]
[INFO] MatrixAssemblyPI: 85.384 [ms]
[INFO] MatrixAssemblyPII: 40.884 [ms]
GAMG:  Solving for p, Initial residual = 1, Final residual = 0.009556481224797658, No Iterations 24
[INFO] SolveP: 1294.825 [ms]
time step continuity errors : sum local = 0.003506321578259522, global = 7.221986508896303e-06, cumulative = 7.221986508896303e-06
[INFO] postSolveP: 21.905 [ms]
smoothSolver:  Solving for nuTilda, Initial residual = 0.9999999997136926, Final residual = 0.06430246354946893, No Iterations 3
[INFO] TimeStep: 2847.7 [ms]
ExecutionTime = 11.33 s  ClockTime = 11 s

--> FOAM Warning : 
    From virtual bool Foam::functionObjects::fieldSelection::checkSelection()
    in file functionObjects/fieldSelections/fieldSelection/fieldSelection.C at line 166
    Field k not found
--> FOAM Warning : 
    From virtual bool Foam::functionObjects::fieldSelection::checkSelection()
    in file functionObjects/fieldSelections/fieldSelection/fieldSelection.C at line 166
    Field gammaInt not found
--> FOAM Warning : 
    From virtual bool Foam::functionObjects::fieldSelection::checkSelection()
    in file functionObjects/fieldSelections/fieldSelection/fieldSelection.C at line 166
    Field omega not found
--> FOAM Warning : 
    From virtual bool Foam::functionObjects::fieldSelection::checkSelection()
    in file functionObjects/fieldSelections/fieldSelection/fieldSelection.C at line 166
    Field ReThetat not found
--> FOAM Warning : 
    From virtual bool Foam::functionObjects::fieldSelection::checkSelection()
    in file functionObjects/fieldSelections/fieldSelection/fieldSelection.C at line 166
    Field epsilon not found
--> FOAM Warning : 
    From virtual bool Foam::functionObjects::solverFieldSelection::updateSelection()
    in file functionObjects/fieldSelections/solverFieldSelection/solverFieldSelection.C at line 85
    Valid solver fields are: 3(U nuTilda p)Time = 2

velocityDampingConstraint velocityDamping damped 0 (0%) of cells, with max limit 300
[INFO] MatrixAssemblyU: 537.639 [ms]
smoothSolver:  Solving for Ux, Initial residual = 0.2130591105448063, Final residual = 0.01842912133988531, No Iterations 13
smoothSolver:  Solving for Uy, Initial residual = 0.3553196506765822, Final residual = 0.03323227817158889, No Iterations 13
smoothSolver:  Solving for Uz, Initial residual = 0.3289753077519634, Final residual = 0.0281231406359875, No Iterations 13
[INFO] MomentumPredictor: 422.008 [ms]
[INFO] MatrixAssemblyPI: 81.639 [ms]
[INFO] MatrixAssemblyPII: 40.122 [ms]
GAMG:  Solving for p, Initial residual = 0.209836121188316, Final residual = 0.001643320058628742, No Iterations 14
[INFO] SolveP: 657.001 [ms]
time step continuity errors : sum local = 0.0336522841912363, global = -0.0001875221281796262, cumulative = -0.0001803001416707299
[INFO] postSolveP: 22.485 [ms]
smoothSolver:  Solving for nuTilda, Initial residual = 0.4058659619653769, Final residual = 0.02535032553640307, No Iterations 1
[INFO] TimeStep: 2067.207 [ms]
ExecutionTime = 13.83 s  ClockTime = 14 s

Time = 3

velocityDampingConstraint velocityDamping damped 830 (0.01%) of cells, with max limit 300
[INFO] MatrixAssemblyU: 547.86 [ms]
smoothSolver:  Solving for Ux, Initial residual = 0.124906780990858, Final residual = 0.01187654728971039, No Iterations 9
smoothSolver:  Solving for Uy, Initial residual = 0.2051297262859148, Final residual = 0.01996731258853455, No Iterations 10
smoothSolver:  Solving for Uz, Initial residual = 0.2163296013612342, Final residual = 0.02141835752001458, No Iterations 9
[INFO] MomentumPredictor: 321.388 [ms]
[INFO] MatrixAssemblyPI: 82.02800000000001 [ms]
[INFO] MatrixAssemblyPII: 40.16 [ms]
GAMG:  Solving for p, Initial residual = 0.1119026268777821, Final residual = 0.0008557187858619038, No Iterations 12
[INFO] SolveP: 566.348 [ms]
time step continuity errors : sum local = 0.01012286116724375, global = -9.033667087137554e-05, cumulative = -0.0002706368125421054
[INFO] postSolveP: 21.034 [ms]
smoothSolver:  Solving for nuTilda, Initial residual = 0.2089656195227344, Final residual = 0.01314838910044368, No Iterations 2
[INFO] TimeStep: 1894.171 [ms]
ExecutionTime = 16.16 s  ClockTime = 16 s

Time = 4

velocityDampingConstraint velocityDamping damped 0 (0%) of cells, with max limit 300
[INFO] MatrixAssemblyU: 550.046 [ms]
smoothSolver:  Solving for Ux, Initial residual = 0.05432100128427992, Final residual = 0.00494625560029566, No Iterations 11
smoothSolver:  Solving for Uy, Initial residual = 0.1223932295180408, Final residual = 0.01081423348171906, No Iterations 11
smoothSolver:  Solving for Uz, Initial residual = 0.1319773282929791, Final residual = 0.01277549612381363, No Iterations 10
[INFO] MomentumPredictor: 361.984 [ms]
[INFO] MatrixAssemblyPI: 82.56399999999999 [ms]
[INFO] MatrixAssemblyPII: 40.244 [ms]
GAMG:  Solving for p, Initial residual = 0.1404334651036091, Final residual = 0.001127061947708901, No Iterations 7
[INFO] SolveP: 339.021 [ms]
time step continuity errors : sum local = 0.01083582502881317, global = 6.873373470413373e-05, cumulative = -0.0002019030778379717
[INFO] postSolveP: 21.472 [ms]
smoothSolver:  Solving for nuTilda, Initial residual = 0.1250300919124161, Final residual = 0.01049832967784605, No Iterations 2
[INFO] TimeStep: 1707.204 [ms]
ExecutionTime = 18.31 s  ClockTime = 19 s

Time = 5

velocityDampingConstraint velocityDamping damped 116 (0%) of cells, with max limit 300
[INFO] MatrixAssemblyU: 546.0069999999999 [ms]
smoothSolver:  Solving for Ux, Initial residual = 0.04406173457261326, Final residual = 0.004197385056254435, No Iterations 10
smoothSolver:  Solving for Uy, Initial residual = 0.09785677269507834, Final residual = 0.009136465058732734, No Iterations 11
smoothSolver:  Solving for Uz, Initial residual = 0.1139185197905862, Final residual = 0.01121083451220306, No Iterations 10
[INFO] MomentumPredictor: 347.359 [ms]
[INFO] MatrixAssemblyPI: 81.72 [ms]
[INFO] MatrixAssemblyPII: 40.305 [ms]
GAMG:  Solving for p, Initial residual = 0.1088035480517186, Final residual = 0.0009010994438106942, No Iterations 8
[INFO] SolveP: 384.092 [ms]
time step continuity errors : sum local = 0.006372942600339571, global = 0.0001291581364979178, cumulative = -7.274494134005391e-05
[INFO] postSolveP: 21.832 [ms]
smoothSolver:  Solving for nuTilda, Initial residual = 0.07090528798420835, Final residual = 0.004309726891834014, No Iterations 3
[INFO] TimeStep: 1741.953 [ms]
ExecutionTime = 20.48 s  ClockTime = 21 s

Time = 6

velocityDampingConstraint velocityDamping damped 0 (0%) of cells, with max limit 300
[INFO] MatrixAssemblyU: 543.783 [ms]
smoothSolver:  Solving for Ux, Initial residual = 0.02990944299147879, Final residual = 0.002661862518079193, No Iterations 12
smoothSolver:  Solving for Uy, Initial residual = 0.07513007925982358, Final residual = 0.006938674431061245, No Iterations 12
smoothSolver:  Solving for Uz, Initial residual = 0.08142857510601208, Final residual = 0.006982802069666669, No Iterations 12
[INFO] MomentumPredictor: 395.652 [ms]
[INFO] MatrixAssemblyPI: 81.881 [ms]
[INFO] MatrixAssemblyPII: 40.476 [ms]
GAMG:  Solving for p, Initial residual = 0.09288855716156438, Final residual = 0.0007883509947532466, No Iterations 7
[INFO] SolveP: 341.046 [ms]
time step continuity errors : sum local = 0.006024871665966325, global = 1.964847593443944e-05, cumulative = -5.309646540561447e-05
[INFO] postSolveP: 21.838 [ms]
smoothSolver:  Solving for nuTilda, Initial residual = 0.0643919647265595, Final residual = 0.006427855131840002, No Iterations 2
[INFO] TimeStep: 1735.363 [ms]
ExecutionTime = 22.65 s  ClockTime = 23 s

Time = 7

velocityDampingConstraint velocityDamping damped 13 (0%) of cells, with max limit 300
[INFO] MatrixAssemblyU: 540.638 [ms]
smoothSolver:  Solving for Ux, Initial residual = 0.02716594894895695, Final residual = 0.002422425463936639, No Iterations 12
smoothSolver:  Solving for Uy, Initial residual = 0.06818545703128161, Final residual = 0.006466300885790234, No Iterations 12
smoothSolver:  Solving for Uz, Initial residual = 0.07160137850311578, Final residual = 0.006267856818613609, No Iterations 12
[INFO] MomentumPredictor: 392.652 [ms]
[INFO] MatrixAssemblyPI: 81.873 [ms]
[INFO] MatrixAssemblyPII: 40.434 [ms]
GAMG:  Solving for p, Initial residual = 0.0807291476676527, Final residual = 0.0006856189333698482, No Iterations 7
[INFO] SolveP: 340.015 [ms]
time step continuity errors : sum local = 0.005165493443463228, global = -3.265319848648714e-05, cumulative = -8.574966389210162e-05
[INFO] postSolveP: 21.768 [ms]
smoothSolver:  Solving for nuTilda, Initial residual = 0.04947151375648778, Final residual = 0.003233946788781116, No Iterations 3
[INFO] TimeStep: 1734.593 [ms]
ExecutionTime = 24.82 s  ClockTime = 25 s

Time = 8

velocityDampingConstraint velocityDamping damped 0 (0%) of cells, with max limit 300
[INFO] MatrixAssemblyU: 538.564 [ms]
smoothSolver:  Solving for Ux, Initial residual = 0.02310982442933645, Final residual = 0.002142095133795913, No Iterations 12
smoothSolver:  Solving for Uy, Initial residual = 0.0606946430598922, Final residual = 0.005955005304665041, No Iterations 12
smoothSolver:  Solving for Uz, Initial residual = 0.0622945379689487, Final residual = 0.005631298631578158, No Iterations 12
[INFO] MomentumPredictor: 396.149 [ms]
[INFO] MatrixAssemblyPI: 81.63500000000001 [ms]
[INFO] MatrixAssemblyPII: 40.326 [ms]
GAMG:  Solving for p, Initial residual = 0.07304591757363194, Final residual = 0.0004951929329143492, No Iterations 6
[INFO] SolveP: 296.227 [ms]
time step continuity errors : sum local = 0.003800967269675811, global = -3.841163661047109e-05, cumulative = -0.0001241613005025727
[INFO] postSolveP: 21.456 [ms]
smoothSolver:  Solving for nuTilda, Initial residual = 0.06588452751050775, Final residual = 0.005889587368337328, No Iterations 2
[INFO] TimeStep: 1684.744 [ms]
ExecutionTime = 26.93 s  ClockTime = 27 s

Time = 9

velocityDampingConstraint velocityDamping damped 0 (0%) of cells, with max limit 300
[INFO] MatrixAssemblyU: 537.51 [ms]
smoothSolver:  Solving for Ux, Initial residual = 0.02033291997557516, Final residual = 0.001900066540728472, No Iterations 12
smoothSolver:  Solving for Uy, Initial residual = 0.05464235680669571, Final residual = 0.005449132262818001, No Iterations 12
smoothSolver:  Solving for Uz, Initial residual = 0.05529281660371602, Final residual = 0.00512677327716322, No Iterations 12
[INFO] MomentumPredictor: 393.298 [ms]
[INFO] MatrixAssemblyPI: 81.756 [ms]
[INFO] MatrixAssemblyPII: 40.174 [ms]
GAMG:  Solving for p, Initial residual = 0.06735035345311245, Final residual = 0.0004679577072789047, No Iterations 6
[INFO] SolveP: 297.109 [ms]
time step continuity errors : sum local = 0.003595271001011661, global = -2.480318582712681e-05, cumulative = -0.0001489644863296995
[INFO] postSolveP: 21.365 [ms]
smoothSolver:  Solving for nuTilda, Initial residual = 0.04445758050198732, Final residual = 0.003224737802065033, No Iterations 3
[INFO] TimeStep: 1689.455 [ms]
ExecutionTime = 29.04 s  ClockTime = 29 s

Time = 10

velocityDampingConstraint velocityDamping damped 0 (0%) of cells, with max limit 300
[INFO] MatrixAssemblyU: 537.085 [ms]
smoothSolver:  Solving for Ux, Initial residual = 0.01831901868470663, Final residual = 0.001726358728283928, No Iterations 12
smoothSolver:  Solving for Uy, Initial residual = 0.0504232602222168, Final residual = 0.005014671965806601, No Iterations 12
smoothSolver:  Solving for Uz, Initial residual = 0.05057638862207811, Final residual = 0.004756917820949017, No Iterations 12
[INFO] MomentumPredictor: 395.191 [ms]
[INFO] MatrixAssemblyPI: 82.175 [ms]
[INFO] MatrixAssemblyPII: 40.294 [ms]
GAMG:  Solving for p, Initial residual = 0.06149254683365016, Final residual = 0.0004622898270362573, No Iterations 6
[INFO] SolveP: 295.174 [ms]
time step continuity errors : sum local = 0.003521272071369181, global = 7.28566054794168e-06, cumulative = -0.0001416788257817579
[INFO] postSolveP: 21.205 [ms]
smoothSolver:  Solving for nuTilda, Initial residual = 0.06995853631663461, Final residual = 0.00553010721346953, No Iterations 2
[INFO] TimeStep: 1679.867 [ms]
ExecutionTime = 31.15 s  ClockTime = 31 s

Time = 11

velocityDampingConstraint velocityDamping damped 0 (0%) of cells, with max limit 300
[INFO] MatrixAssemblyU: 536.654 [ms]
smoothSolver:  Solving for Ux, Initial residual = 0.0166709299843203, Final residual = 0.001603717874127247, No Iterations 12
smoothSolver:  Solving for Uy, Initial residual = 0.04756982938791729, Final residual = 0.004702967340822296, No Iterations 12
smoothSolver:  Solving for Uz, Initial residual = 0.04732437676879879, Final residual = 0.00449059579418158, No Iterations 12
[INFO] MomentumPredictor: 392.179 [ms]
[INFO] MatrixAssemblyPI: 81.738 [ms]
[INFO] MatrixAssemblyPII: 40.371 [ms]
GAMG:  Solving for p, Initial residual = 0.05699858793751014, Final residual = 0.0004449463599782076, No Iterations 6
[INFO] SolveP: 292.772 [ms]
time step continuity errors : sum local = 0.003407213771938362, global = 2.603782602691653e-05, cumulative = -0.0001156409997548413
[INFO] postSolveP: 21.071 [ms]
smoothSolver:  Solving for nuTilda, Initial residual = 0.03934364540847322, Final residual = 0.003051576419421919, No Iterations 3
[INFO] TimeStep: 1682.348 [ms]
ExecutionTime = 33.26 s  ClockTime = 34 s

Time = 12

velocityDampingConstraint velocityDamping damped 0 (0%) of cells, with max limit 300
[INFO] MatrixAssemblyU: 535.955 [ms]
smoothSolver:  Solving for Ux, Initial residual = 0.01553782499682504, Final residual = 0.001517000650964311, No Iterations 12
smoothSolver:  Solving for Uy, Initial residual = 0.0454824979481635, Final residual = 0.004467597781206076, No Iterations 12
smoothSolver:  Solving for Uz, Initial residual = 0.04487208368302308, Final residual = 0.004281769970303008, No Iterations 12
[INFO] MomentumPredictor: 395.532 [ms]
[INFO] MatrixAssemblyPI: 81.93300000000001 [ms]
[INFO] MatrixAssemblyPII: 40.302 [ms]
GAMG:  Solving for p, Initial residual = 0.05298593319187564, Final residual = 0.0003937811522461835, No Iterations 6
[INFO] SolveP: 294.016 [ms]
time step continuity errors : sum local = 0.003038458966647101, global = 3.568752663031992e-05, cumulative = -7.99534731245214e-05
[INFO] postSolveP: 20.877 [ms]
smoothSolver:  Solving for nuTilda, Initial residual = 0.06585152943795514, Final residual = 0.005135426649649867, No Iterations 2
[INFO] TimeStep: 1676.194 [ms]
ExecutionTime = 35.37 s  ClockTime = 36 s

Time = 13

velocityDampingConstraint velocityDamping damped 0 (0%) of cells, with max limit 300
[INFO] MatrixAssemblyU: 536.022 [ms]
smoothSolver:  Solving for Ux, Initial residual = 0.01451315316235622, Final residual = 0.001443368545826, No Iterations 12
smoothSolver:  Solving for Uy, Initial residual = 0.04356984780056167, Final residual = 0.004270032930428112, No Iterations 12
smoothSolver:  Solving for Uz, Initial residual = 0.04304198098967565, Final residual = 0.004132237283124632, No Iterations 12
[INFO] MomentumPredictor: 391.398 [ms]
[INFO] MatrixAssemblyPI: 81.759 [ms]
[INFO] MatrixAssemblyPII: 40.459 [ms]
GAMG:  Solving for p, Initial residual = 0.04968430742042679, Final residual = 0.0003524303466114204, No Iterations 6
[INFO] SolveP: 294.404 [ms]
time step continuity errors : sum local = 0.002734527659687488, global = 2.635388398075349e-05, cumulative = -5.359958914376791e-05
[INFO] postSolveP: 21.267 [ms]
smoothSolver:  Solving for nuTilda, Initial residual = 0.03475882744468067, Final residual = 0.002851092461619763, No Iterations 3
[INFO] TimeStep: 1682.028 [ms]
ExecutionTime = 37.47 s  ClockTime = 38 s

Time = 14

velocityDampingConstraint velocityDamping damped 0 (0%) of cells, with max limit 300
[INFO] MatrixAssemblyU: 535.706 [ms]
smoothSolver:  Solving for Ux, Initial residual = 0.01368417365979793, Final residual = 0.001172689670533078, No Iterations 13
smoothSolver:  Solving for Uy, Initial residual = 0.04174537357826347, Final residual = 0.004102064544555261, No Iterations 12
smoothSolver:  Solving for Uz, Initial residual = 0.04201741176566194, Final residual = 0.004052443964432005, No Iterations 12
[INFO] MomentumPredictor: 404.848 [ms]
[INFO] MatrixAssemblyPI: 82.10599999999999 [ms]
[INFO] MatrixAssemblyPII: 40.224 [ms]
GAMG:  Solving for p, Initial residual = 0.04724467818182581, Final residual = 0.0003166055304307304, No Iterations 6
[INFO] SolveP: 294.994 [ms]
time step continuity errors : sum local = 0.002469061047622329, global = 1.381871590381928e-05, cumulative = -3.978087323994864e-05
[INFO] postSolveP: 21.096 [ms]
smoothSolver:  Solving for nuTilda, Initial residual = 0.05852008279251061, Final residual = 0.004824214907890402, No Iterations 2
[INFO] TimeStep: 1685.857 [ms]
ExecutionTime = 39.59 s  ClockTime = 40 s

Time = 15

velocityDampingConstraint velocityDamping damped 0 (0%) of cells, with max limit 300
[INFO] MatrixAssemblyU: 533.97 [ms]
smoothSolver:  Solving for Ux, Initial residual = 0.01281682413476006, Final residual = 0.001109990459250817, No Iterations 13
smoothSolver:  Solving for Uy, Initial residual = 0.0403187121285465, Final residual = 0.003988269253175286, No Iterations 12
smoothSolver:  Solving for Uz, Initial residual = 0.04165948472189709, Final residual = 0.004042888992849461, No Iterations 12
[INFO] MomentumPredictor: 404.177 [ms]
[INFO] MatrixAssemblyPI: 81.762 [ms]
[INFO] MatrixAssemblyPII: 40.439 [ms]
GAMG:  Solving for p, Initial residual = 0.04563209856565386, Final residual = 0.0003051975445558923, No Iterations 6
[INFO] SolveP: 294.502 [ms]
time step continuity errors : sum local = 0.002391589748623113, global = -9.033422115873049e-07, cumulative = -4.068421545153594e-05
[INFO] postSolveP: 21.128 [ms]
smoothSolver:  Solving for nuTilda, Initial residual = 0.03116502554132468, Final residual = 0.002680329561664474, No Iterations 3
[INFO] TimeStep: 1691.321 [ms]
ExecutionTime = 41.7 s  ClockTime = 42 s

Time = 16

velocityDampingConstraint velocityDamping damped 0 (0%) of cells, with max limit 300
[INFO] MatrixAssemblyU: 534.5890000000001 [ms]
smoothSolver:  Solving for Ux, Initial residual = 0.01217972822223409, Final residual = 0.00105416246066871, No Iterations 13
smoothSolver:  Solving for Uy, Initial residual = 0.03938609851723397, Final residual = 0.003915999015847489, No Iterations 12
smoothSolver:  Solving for Uz, Initial residual = 0.04157839133184275, Final residual = 0.004047433600275087, No Iterations 12
[INFO] MomentumPredictor: 404.827 [ms]
[INFO] MatrixAssemblyPI: 82.125 [ms]
[INFO] MatrixAssemblyPII: 40.198 [ms]
GAMG:  Solving for p, Initial residual = 0.04433362297866079, Final residual = 0.0003008999095724518, No Iterations 6
[INFO] SolveP: 294.027 [ms]
time step continuity errors : sum local = 0.002365402537188155, global = -9.528142127081919e-06, cumulative = -5.021235757861786e-05
[INFO] postSolveP: 20.889 [ms]
smoothSolver:  Solving for nuTilda, Initial residual = 0.05193709214366773, Final residual = 0.004569551840937752, No Iterations 2
[INFO] TimeStep: 1683.861 [ms]
ExecutionTime = 43.81 s  ClockTime = 44 s

Time = 17

velocityDampingConstraint velocityDamping damped 0 (0%) of cells, with max limit 300
[INFO] MatrixAssemblyU: 533.269 [ms]
smoothSolver:  Solving for Ux, Initial residual = 0.0115559917177686, Final residual = 0.001005468456016425, No Iterations 13
smoothSolver:  Solving for Uy, Initial residual = 0.03883160886245939, Final residual = 0.003303471957347566, No Iterations 13
smoothSolver:  Solving for Uz, Initial residual = 0.04151854093675206, Final residual = 0.004051028742892118, No Iterations 12
[INFO] MomentumPredictor: 411.884 [ms]
[INFO] MatrixAssemblyPI: 81.92400000000001 [ms]
[INFO] MatrixAssemblyPII: 40.19 [ms]
GAMG:  Solving for p, Initial residual = 0.04387634332480495, Final residual = 0.0003051753292979399, No Iterations 6
[INFO] SolveP: 293.168 [ms]
time step continuity errors : sum local = 0.002413519049951211, global = -1.170255046332626e-05, cumulative = -6.191490804194412e-05
[INFO] postSolveP: 21.287 [ms]
smoothSolver:  Solving for nuTilda, Initial residual = 0.02852546701051407, Final residual = 0.002529005618183706, No Iterations 3
[INFO] TimeStep: 1697.471 [ms]
ExecutionTime = 45.93 s  ClockTime = 46 s

Time = 18

velocityDampingConstraint velocityDamping damped 0 (0%) of cells, with max limit 300
[INFO] MatrixAssemblyU: 532.514 [ms]
smoothSolver:  Solving for Ux, Initial residual = 0.01121724545744543, Final residual = 0.0009663046944974328, No Iterations 13
smoothSolver:  Solving for Uy, Initial residual = 0.0385610881246173, Final residual = 0.003290798638778816, No Iterations 13
smoothSolver:  Solving for Uz, Initial residual = 0.04177037139177148, Final residual = 0.004062530915632055, No Iterations 12
[INFO] MomentumPredictor: 411.857 [ms]
[INFO] MatrixAssemblyPI: 83.48 [ms]
[INFO] MatrixAssemblyPII: 40.139 [ms]
GAMG:  Solving for p, Initial residual = 0.04374782289424722, Final residual = 0.0003031404464414396, No Iterations 6
[INFO] SolveP: 294.321 [ms]
time step continuity errors : sum local = 0.002412429127479488, global = -4.283626112476775e-06, cumulative = -6.61985341544209e-05
[INFO] postSolveP: 20.915 [ms]
smoothSolver:  Solving for nuTilda, Initial residual = 0.04657470031213189, Final residual = 0.004314957923018337, No Iterations 2
[INFO] TimeStep: 1689.979 [ms]
ExecutionTime = 48.05 s  ClockTime = 48 s

Time = 19

velocityDampingConstraint velocityDamping damped 0 (0%) of cells, with max limit 300
[INFO] MatrixAssemblyU: 532.5940000000001 [ms]
smoothSolver:  Solving for Ux, Initial residual = 0.01086174633374687, Final residual = 0.0009356531041484694, No Iterations 13
smoothSolver:  Solving for Uy, Initial residual = 0.03888650340547024, Final residual = 0.00331817313676906, No Iterations 13
smoothSolver:  Solving for Uz, Initial residual = 0.04249409103590608, Final residual = 0.004105723687435101, No Iterations 12
[INFO] MomentumPredictor: 413.178 [ms]
[INFO] MatrixAssemblyPI: 81.836 [ms]
[INFO] MatrixAssemblyPII: 40.379 [ms]
GAMG:  Solving for p, Initial residual = 0.04395952121531403, Final residual = 0.0002834143864300296, No Iterations 6
[INFO] SolveP: 294.863 [ms]
time step continuity errors : sum local = 0.002270557698839544, global = 5.290319292649335e-06, cumulative = -6.090821486177156e-05
[INFO] postSolveP: 21.56 [ms]
smoothSolver:  Solving for nuTilda, Initial residual = 0.0265308147086208, Final residual = 0.002377886858154741, No Iterations 3
[INFO] TimeStep: 1698.774 [ms]
ExecutionTime = 50.16 s  ClockTime = 51 s

Time = 20

velocityDampingConstraint velocityDamping damped 0 (0%) of cells, with max limit 300
[INFO] MatrixAssemblyU: 533.672 [ms]
smoothSolver:  Solving for Ux, Initial residual = 0.0106902517573456, Final residual = 0.0009163466976032734, No Iterations 13
smoothSolver:  Solving for Uy, Initial residual = 0.03931866282825044, Final residual = 0.003922241133498094, No Iterations 12
smoothSolver:  Solving for Uz, Initial residual = 0.04309642185197914, Final residual = 0.004139259324837493, No Iterations 12
[INFO] MomentumPredictor: 405.464 [ms]
[INFO] MatrixAssemblyPI: 81.271 [ms]
[INFO] MatrixAssemblyPII: 40.33 [ms]
GAMG:  Solving for p, Initial residual = 0.0438472378589601, Final residual = 0.0002669341265285864, No Iterations 6
[INFO] SolveP: 295.841 [ms]
time step continuity errors : sum local = 0.002159543459481464, global = 1.347121394559203e-05, cumulative = -4.743700091617954e-05
[INFO] postSolveP: 20.868 [ms]
smoothSolver:  Solving for nuTilda, Initial residual = 0.04202017545816721, Final residual = 0.004059255918791267, No Iterations 2
[INFO] TimeStep: 1684.499 [ms]
ExecutionTime = 52.28 s  ClockTime = 53 s

Time = 21

velocityDampingConstraint velocityDamping damped 0 (0%) of cells, with max limit 300
[INFO] MatrixAssemblyU: 532.701 [ms]
smoothSolver:  Solving for Ux, Initial residual = 0.01048261632437682, Final residual = 0.0009026670636045597, No Iterations 13
smoothSolver:  Solving for Uy, Initial residual = 0.03996664687453373, Final residual = 0.003973551267289042, No Iterations 12
smoothSolver:  Solving for Uz, Initial residual = 0.0434124178032256, Final residual = 0.004136395628008225, No Iterations 12
[INFO] MomentumPredictor: 407.546 [ms]
[INFO] MatrixAssemblyPI: 82.44799999999999 [ms]
[INFO] MatrixAssemblyPII: 40.207 [ms]
GAMG:  Solving for p, Initial residual = 0.0438310500831811, Final residual = 0.0002680317675916007, No Iterations 6
[INFO] SolveP: 293.654 [ms]
time step continuity errors : sum local = 0.002196620077987488, global = 1.903518097764995e-05, cumulative = -2.840181993852959e-05
[INFO] postSolveP: 21.023 [ms]
smoothSolver:  Solving for nuTilda, Initial residual = 0.02486721015164847, Final residual = 0.002230481883090022, No Iterations 3
[INFO] TimeStep: 1693.785 [ms]
ExecutionTime = 54.39 s  ClockTime = 55 s

Time = 22

velocityDampingConstraint velocityDamping damped 0 (0%) of cells, with max limit 300
[INFO] MatrixAssemblyU: 532.792 [ms]
smoothSolver:  Solving for Ux, Initial residual = 0.01045385690757684, Final residual = 0.0008910843433473169, No Iterations 13
smoothSolver:  Solving for Uy, Initial residual = 0.04061519208197004, Final residual = 0.003998595582748615, No Iterations 12
smoothSolver:  Solving for Uz, Initial residual = 0.04334078145163929, Final residual = 0.004094512493913419, No Iterations 12
[INFO] MomentumPredictor: 405.56 [ms]
[INFO] MatrixAssemblyPI: 82.248 [ms]
[INFO] MatrixAssemblyPII: 40.277 [ms]
GAMG:  Solving for p, Initial residual = 0.04359620217577524, Final residual = 0.0002852484045696953, No Iterations 6
[INFO] SolveP: 294.838 [ms]
time step continuity errors : sum local = 0.002368906626741495, global = 2.191817835641335e-05, cumulative = -6.483641582116236e-06
[INFO] postSolveP: 20.958 [ms]
smoothSolver:  Solving for nuTilda, Initial residual = 0.0381272557375272, Final residual = 0.003812318798103643, No Iterations 2
[INFO] TimeStep: 1683.011 [ms]
ExecutionTime = 56.5 s  ClockTime = 57 s

Time = 23

velocityDampingConstraint velocityDamping damped 0 (0%) of cells, with max limit 300
[INFO] MatrixAssemblyU: 532.601 [ms]
smoothSolver:  Solving for Ux, Initial residual = 0.01031550972445512, Final residual = 0.0008816188414325972, No Iterations 13
smoothSolver:  Solving for Uy, Initial residual = 0.04123340554883232, Final residual = 0.004004239135118166, No Iterations 12
smoothSolver:  Solving for Uz, Initial residual = 0.04295396674305032, Final residual = 0.004014898306229518, No Iterations 12
[INFO] MomentumPredictor: 410.05 [ms]
[INFO] MatrixAssemblyPI: 81.45399999999999 [ms]
[INFO] MatrixAssemblyPII: 40.515 [ms]
GAMG:  Solving for p, Initial residual = 0.04330402148272296, Final residual = 0.000299427121158352, No Iterations 6
[INFO] SolveP: 294.398 [ms]
time step continuity errors : sum local = 0.002527423873450052, global = 2.598341156496779e-05, cumulative = 1.949976998285155e-05
[INFO] postSolveP: 21.567 [ms]
smoothSolver:  Solving for nuTilda, Initial residual = 0.02316435032211342, Final residual = 0.002094774424546194, No Iterations 3
[INFO] TimeStep: 1695.811 [ms]
ExecutionTime = 58.61 s  ClockTime = 59 s

Time = 24

velocityDampingConstraint velocityDamping damped 0 (0%) of cells, with max limit 300
[INFO] MatrixAssemblyU: 532.347 [ms]
smoothSolver:  Solving for Ux, Initial residual = 0.01034229514596348, Final residual = 0.001028319502042606, No Iterations 12
smoothSolver:  Solving for Uy, Initial residual = 0.04194364528960528, Final residual = 0.004042306578499844, No Iterations 12
smoothSolver:  Solving for Uz, Initial residual = 0.04255183256063924, Final residual = 0.003939945215093052, No Iterations 12
[INFO] MomentumPredictor: 397.621 [ms]
[INFO] MatrixAssemblyPI: 81.629 [ms]
[INFO] MatrixAssemblyPII: 40.299 [ms]
GAMG:  Solving for p, Initial residual = 0.04291080492529013, Final residual = 0.0003030014482716273, No Iterations 6
[INFO] SolveP: 293.964 [ms]
time step continuity errors : sum local = 0.002601261039173416, global = 2.858840548397108e-05, cumulative = 4.808817546682264e-05
[INFO] postSolveP: 21.102 [ms]
smoothSolver:  Solving for nuTilda, Initial residual = 0.03484641757005479, Final residual = 0.001924117595023947, No Iterations 3
[INFO] TimeStep: 1682.876 [ms]
ExecutionTime = 60.73 s  ClockTime = 61 s

Time = 25

velocityDampingConstraint velocityDamping damped 0 (0%) of cells, with max limit 300
[INFO] MatrixAssemblyU: 531.776 [ms]
smoothSolver:  Solving for Ux, Initial residual = 0.01028436099859316, Final residual = 0.0008797081197150269, No Iterations 13
smoothSolver:  Solving for Uy, Initial residual = 0.04276128887339364, Final residual = 0.004133676037300426, No Iterations 12
smoothSolver:  Solving for Uz, Initial residual = 0.04228480065979635, Final residual = 0.00390499615476361, No Iterations 12
[INFO] MomentumPredictor: 409.133 [ms]
[INFO] MatrixAssemblyPI: 82.63200000000001 [ms]
[INFO] MatrixAssemblyPII: 40.654 [ms]
GAMG:  Solving for p, Initial residual = 0.0422512933122751, Final residual = 0.0002986631245996703, No Iterations 6
[INFO] SolveP: 294.858 [ms]
time step continuity errors : sum local = 0.002608313036716714, global = 3.712165002115798e-05, cumulative = 8.520982548798061e-05
[INFO] postSolveP: 21.04 [ms]
smoothSolver:  Solving for nuTilda, Initial residual = 0.021491328350435, Final residual = 0.001975050370682208, No Iterations 3
[INFO] TimeStep: 1695.456 [ms]
ExecutionTime = 62.84 s  ClockTime = 63 s

Time = 26

velocityDampingConstraint velocityDamping damped 0 (0%) of cells, with max limit 300
[INFO] MatrixAssemblyU: 532.4349999999999 [ms]
smoothSolver:  Solving for Ux, Initial residual = 0.0103607495592425, Final residual = 0.001032075239801719, No Iterations 12
smoothSolver:  Solving for Uy, Initial residual = 0.04369007480246109, Final residual = 0.004283292816106493, No Iterations 12
smoothSolver:  Solving for Uz, Initial residual = 0.04227527251015372, Final residual = 0.003947584576024158, No Iterations 12
[INFO] MomentumPredictor: 395.841 [ms]
[INFO] MatrixAssemblyPI: 81.82899999999999 [ms]
[INFO] MatrixAssemblyPII: 40.497 [ms]
GAMG:  Solving for p, Initial residual = 0.04184140646973928, Final residual = 0.0003005683806389242, No Iterations 6
[INFO] SolveP: 294.515 [ms]
time step continuity errors : sum local = 0.002660915000655464, global = 3.890935591083402e-05, cumulative = 0.0001241191813988147
[INFO] postSolveP: 20.925 [ms]
smoothSolver:  Solving for nuTilda, Initial residual = 0.03186603685963904, Final residual = 0.001817874166012791, No Iterations 3
[INFO] TimeStep: 1680.953 [ms]
ExecutionTime = 64.95 s  ClockTime = 65 s

Time = 27

velocityDampingConstraint velocityDamping damped 0 (0%) of cells, with max limit 300
[INFO] MatrixAssemblyU: 532.606 [ms]
smoothSolver:  Solving for Ux, Initial residual = 0.01035885625004405, Final residual = 0.001033641529024555, No Iterations 12
smoothSolver:  Solving for Uy, Initial residual = 0.04472105775312425, Final residual = 0.004450141930672964, No Iterations 12
smoothSolver:  Solving for Uz, Initial residual = 0.04255641412901921, Final residual = 0.004027181584454176, No Iterations 12
[INFO] MomentumPredictor: 396.928 [ms]
[INFO] MatrixAssemblyPI: 82.389 [ms]
[INFO] MatrixAssemblyPII: 40.282 [ms]
GAMG:  Solving for p, Initial residual = 0.04204087001940118, Final residual = 0.0002962757168248736, No Iterations 6
[INFO] SolveP: 294.33 [ms]
time step continuity errors : sum local = 0.002659581397868363, global = 4.088256087238669e-05, cumulative = 0.0001650017422712013
[INFO] postSolveP: 20.927 [ms]
smoothSolver:  Solving for nuTilda, Initial residual = 0.01986444072365123, Final residual = 0.001849439189827789, No Iterations 3
[INFO] TimeStep: 1683.116 [ms]
ExecutionTime = 67.06 s  ClockTime = 67 s

Time = 28

velocityDampingConstraint velocityDamping damped 0 (0%) of cells, with max limit 300
[INFO] MatrixAssemblyU: 532.829 [ms]
smoothSolver:  Solving for Ux, Initial residual = 0.0105036280966304, Final residual = 0.001037271022427068, No Iterations 12
smoothSolver:  Solving for Uy, Initial residual = 0.04607672381886395, Final residual = 0.003947181159883307, No Iterations 13
smoothSolver:  Solving for Uz, Initial residual = 0.04354642655128248, Final residual = 0.004137892508528622, No Iterations 12
[INFO] MomentumPredictor: 405.595 [ms]
[INFO] MatrixAssemblyPI: 81.514 [ms]
[INFO] MatrixAssemblyPII: 40.208 [ms]
GAMG:  Solving for p, Initial residual = 0.04292085455727838, Final residual = 0.0003052543630005946, No Iterations 6
[INFO] SolveP: 294.072 [ms]
time step continuity errors : sum local = 0.002778017449465956, global = 4.098037365103451e-05, cumulative = 0.0002059821159222358
[INFO] postSolveP: 20.908 [ms]
smoothSolver:  Solving for nuTilda, Initial residual = 0.02928855830086817, Final residual = 0.001711577643328662, No Iterations 3
[INFO] TimeStep: 1691.609 [ms]
ExecutionTime = 69.17 s  ClockTime = 70 s

Time = 29

velocityDampingConstraint velocityDamping damped 0 (0%) of cells, with max limit 300
[INFO] MatrixAssemblyU: 531.79 [ms]
smoothSolver:  Solving for Ux, Initial residual = 0.01054115556137353, Final residual = 0.001039245494425397, No Iterations 12
smoothSolver:  Solving for Uy, Initial residual = 0.04766032811071053, Final residual = 0.004084590744615736, No Iterations 13
smoothSolver:  Solving for Uz, Initial residual = 0.04497340313155766, Final residual = 0.004278198369678757, No Iterations 12
[INFO] MomentumPredictor: 404.936 [ms]
[INFO] MatrixAssemblyPI: 82.357 [ms]
[INFO] MatrixAssemblyPII: 40.202 [ms]
GAMG:  Solving for p, Initial residual = 0.04383854556415432, Final residual = 0.0002967882820137415, No Iterations 6
[INFO] SolveP: 294.73 [ms]
time step continuity errors : sum local = 0.002737114707724207, global = 4.047667317279332e-05, cumulative = 0.0002464587890950292
[INFO] postSolveP: 20.864 [ms]
smoothSolver:  Solving for nuTilda, Initial residual = 0.01843362049481432, Final residual = 0.001725490152801683, No Iterations 3
[INFO] TimeStep: 1690.547 [ms]
ExecutionTime = 71.28 s  ClockTime = 72 s

Time = 30

velocityDampingConstraint velocityDamping damped 0 (0%) of cells, with max limit 300
[INFO] MatrixAssemblyU: 531.347 [ms]
smoothSolver:  Solving for Ux, Initial residual = 0.01073914807472313, Final residual = 0.001045553095909227, No Iterations 12
smoothSolver:  Solving for Uy, Initial residual = 0.04973008177477214, Final residual = 0.004232897425704224, No Iterations 13
smoothSolver:  Solving for Uz, Initial residual = 0.04655891542404514, Final residual = 0.004412283961786784, No Iterations 12
[INFO] MomentumPredictor: 403.409 [ms]
[INFO] MatrixAssemblyPI: 81.76300000000001 [ms]
[INFO] MatrixAssemblyPII: 40.482 [ms]
GAMG:  Solving for p, Initial residual = 0.04474420103708505, Final residual = 0.0002831959993268253, No Iterations 6
[INFO] SolveP: 294.062 [ms]
time step continuity errors : sum local = 0.002648168748237437, global = 3.682045588178175e-05, cumulative = 0.000283279244976811
[INFO] postSolveP: 20.821 [ms]
smoothSolver:  Solving for nuTilda, Initial residual = 0.0270595045904355, Final residual = 0.001604445868038954, No Iterations 3
[INFO] TimeStep: 1686.471 [ms]
ExecutionTime = 73.40000000000001 s  ClockTime = 74 s

Time = 31

velocityDampingConstraint velocityDamping damped 0 (0%) of cells, with max limit 300
[INFO] MatrixAssemblyU: 531.581 [ms]
smoothSolver:  Solving for Ux, Initial residual = 0.01081286561746842, Final residual = 0.001052491400839338, No Iterations 12
smoothSolver:  Solving for Uy, Initial residual = 0.05207287924103905, Final residual = 0.005180874755964987, No Iterations 12
smoothSolver:  Solving for Uz, Initial residual = 0.04826371812325586, Final residual = 0.004570478741234472, No Iterations 12
[INFO] MomentumPredictor: 395.674 [ms]
[INFO] MatrixAssemblyPI: 81.679 [ms]
[INFO] MatrixAssemblyPII: 40.634 [ms]
GAMG:  Solving for p, Initial residual = 0.04599082911360895, Final residual = 0.0002831624694789899, No Iterations 6
[INFO] SolveP: 293.352 [ms]
time step continuity errors : sum local = 0.002680114854248363, global = 3.656166550966432e-05, cumulative = 0.0003198409104864753
[INFO] postSolveP: 21.13 [ms]
smoothSolver:  Solving for nuTilda, Initial residual = 0.01714025439322161, Final residual = 0.001606053817483444, No Iterations 3
[INFO] TimeStep: 1678.555 [ms]
ExecutionTime = 75.5 s  ClockTime = 76 s

Time = 32

velocityDampingConstraint velocityDamping damped 0 (0%) of cells, with max limit 300
[INFO] MatrixAssemblyU: 529.672 [ms]
smoothSolver:  Solving for Ux, Initial residual = 0.01094468612525387, Final residual = 0.001060055339974273, No Iterations 12
smoothSolver:  Solving for Uy, Initial residual = 0.05447587971226166, Final residual = 0.005416704301988798, No Iterations 12
smoothSolver:  Solving for Uz, Initial residual = 0.04981222132816523, Final residual = 0.004771830460173805, No Iterations 12
[INFO] MomentumPredictor: 396.619 [ms]
[INFO] MatrixAssemblyPI: 81.848 [ms]
[INFO] MatrixAssemblyPII: 40.048 [ms]
GAMG:  Solving for p, Initial residual = 0.04756736070462673, Final residual = 0.0002836853913592234, No Iterations 6
[INFO] SolveP: 294.244 [ms]
time step continuity errors : sum local = 0.00271191278247222, global = 3.148274291350486e-05, cumulative = 0.0003513236533999801
[INFO] postSolveP: 20.757 [ms]
smoothSolver:  Solving for nuTilda, Initial residual = 0.0251355186824275, Final residual = 0.001501422337090586, No Iterations 3
[INFO] TimeStep: 1678.065 [ms]
ExecutionTime = 77.59 s  ClockTime = 78 s

Time = 33

velocityDampingConstraint velocityDamping damped 0 (0%) of cells, with max limit 300
[INFO] MatrixAssemblyU: 529.84 [ms]
smoothSolver:  Solving for Ux, Initial residual = 0.01090586446522223, Final residual = 0.001067114855428749, No Iterations 12
smoothSolver:  Solving for Uy, Initial residual = 0.05679681221347605, Final residual = 0.005644446632810877, No Iterations 12
smoothSolver:  Solving for Uz, Initial residual = 0.05197850593209124, Final residual = 0.005044633537842843, No Iterations 12
[INFO] MomentumPredictor: 393.297 [ms]
[INFO] MatrixAssemblyPI: 81.691 [ms]
[INFO] MatrixAssemblyPII: 40.222 [ms]
GAMG:  Solving for p, Initial residual = 0.049521180665503, Final residual = 0.0002906680981916055, No Iterations 6
[INFO] SolveP: 295.742 [ms]
time step continuity errors : sum local = 0.002803099516227283, global = 2.668111652169027e-05, cumulative = 0.0003780047699216704
[INFO] postSolveP: 20.972 [ms]
smoothSolver:  Solving for nuTilda, Initial residual = 0.0160291364877641, Final residual = 0.001495099119354578, No Iterations 3
[INFO] TimeStep: 1675.956 [ms]
ExecutionTime = 79.69 s  ClockTime = 80 s

Time = 34

velocityDampingConstraint velocityDamping damped 0 (0%) of cells, with max limit 300
[INFO] MatrixAssemblyU: 531.651 [ms]
smoothSolver:  Solving for Ux, Initial residual = 0.01103514333628259, Final residual = 0.001078511159865188, No Iterations 12
smoothSolver:  Solving for Uy, Initial residual = 0.05932070327013751, Final residual = 0.005899625826073918, No Iterations 12
smoothSolver:  Solving for Uz, Initial residual = 0.05448931691996552, Final residual = 0.005342486482237772, No Iterations 12
[INFO] MomentumPredictor: 395.643 [ms]
[INFO] MatrixAssemblyPI: 81.994 [ms]
[INFO] MatrixAssemblyPII: 40.348 [ms]
GAMG:  Solving for p, Initial residual = 0.05171599222086359, Final residual = 0.0003036631583859839, No Iterations 6
[INFO] SolveP: 293.725 [ms]
time step continuity errors : sum local = 0.002954158448632006, global = 2.395549748379601e-05, cumulative = 0.0004019602674054664
[INFO] postSolveP: 21.008 [ms]
smoothSolver:  Solving for nuTilda, Initial residual = 0.02347502493223886, Final residual = 0.001405881006615156, No Iterations 3
[INFO] TimeStep: 1679.189 [ms]
ExecutionTime = 81.79000000000001 s  ClockTime = 82 s

Time = 35

velocityDampingConstraint velocityDamping damped 0 (0%) of cells, with max limit 300
[INFO] MatrixAssemblyU: 529.484 [ms]
smoothSolver:  Solving for Ux, Initial residual = 0.01110289333556243, Final residual = 0.001092676738022667, No Iterations 12
smoothSolver:  Solving for Uy, Initial residual = 0.06188356582117815, Final residual = 0.005270486764721326, No Iterations 13
smoothSolver:  Solving for Uz, Initial residual = 0.05704114052136736, Final residual = 0.005618389807686269, No Iterations 12
[INFO] MomentumPredictor: 402.589 [ms]
[INFO] MatrixAssemblyPI: 81.444 [ms]
[INFO] MatrixAssemblyPII: 40.251 [ms]
GAMG:  Solving for p, Initial residual = 0.05367037582595494, Final residual = 0.0005186410705977377, No Iterations 5
[INFO] SolveP: 248.042 [ms]
time step continuity errors : sum local = 0.005093118222145866, global = 3.352665161188949e-05, cumulative = 0.0004354869190173559
[INFO] postSolveP: 21.117 [ms]
smoothSolver:  Solving for nuTilda, Initial residual = 0.01510322663444324, Final residual = 0.001395471527623655, No Iterations 3
[INFO] TimeStep: 1636.54 [ms]
ExecutionTime = 83.84 s  ClockTime = 84 s

Time = 36

velocityDampingConstraint velocityDamping damped 0 (0%) of cells, with max limit 300
[INFO] MatrixAssemblyU: 528.847 [ms]
smoothSolver:  Solving for Ux, Initial residual = 0.01138244065523073, Final residual = 0.001114939917481795, No Iterations 12
smoothSolver:  Solving for Uy, Initial residual = 0.06385668946642879, Final residual = 0.005523202749594678, No Iterations 13
smoothSolver:  Solving for Uz, Initial residual = 0.05971532718010045, Final residual = 0.005885660734444878, No Iterations 12
[INFO] MomentumPredictor: 404.322 [ms]
[INFO] MatrixAssemblyPI: 81.67 [ms]
[INFO] MatrixAssemblyPII: 40.303 [ms]
GAMG:  Solving for p, Initial residual = 0.05508335018519476, Final residual = 0.0005093286781880956, No Iterations 5
[INFO] SolveP: 248.01 [ms]
time step continuity errors : sum local = 0.005035729386430402, global = 3.213472235727684e-05, cumulative = 0.0004676216413746327
[INFO] postSolveP: 21.121 [ms]
smoothSolver:  Solving for nuTilda, Initial residual = 0.02202410085313073, Final residual = 0.001318333179152855, No Iterations 3
[INFO] TimeStep: 1639.882 [ms]
ExecutionTime = 85.91 s  ClockTime = 86 s

Time = 37

velocityDampingConstraint velocityDamping damped 0 (0%) of cells, with max limit 300
[INFO] MatrixAssemblyU: 529.068 [ms]
smoothSolver:  Solving for Ux, Initial residual = 0.01159417075975822, Final residual = 0.001141457653917087, No Iterations 12
smoothSolver:  Solving for Uy, Initial residual = 0.06570004759769642, Final residual = 0.00578057956140971, No Iterations 13
smoothSolver:  Solving for Uz, Initial residual = 0.06232304584562435, Final residual = 0.006113426301406055, No Iterations 12
[INFO] MomentumPredictor: 402.067 [ms]
[INFO] MatrixAssemblyPI: 81.803 [ms]
[INFO] MatrixAssemblyPII: 40.203 [ms]
GAMG:  Solving for p, Initial residual = 0.05686889880952535, Final residual = 0.0004934796398005638, No Iterations 5
[INFO] SolveP: 248.176 [ms]
time step continuity errors : sum local = 0.004914100347342376, global = 3.292597724993911e-05, cumulative = 0.0005005476186245718
[INFO] postSolveP: 20.971 [ms]
smoothSolver:  Solving for nuTilda, Initial residual = 0.01427170685706535, Final residual = 0.001306430148818124, No Iterations 3
[INFO] TimeStep: 1637.097 [ms]
ExecutionTime = 87.95999999999999 s  ClockTime = 88 s

Time = 38

velocityDampingConstraint velocityDamping damped 0 (0%) of cells, with max limit 300
[INFO] MatrixAssemblyU: 528.367 [ms]
smoothSolver:  Solving for Ux, Initial residual = 0.01190634384809755, Final residual = 0.001164160280486424, No Iterations 12
smoothSolver:  Solving for Uy, Initial residual = 0.0672415420795458, Final residual = 0.005969489616797405, No Iterations 13
smoothSolver:  Solving for Uz, Initial residual = 0.06499458612431366, Final residual = 0.006304144821217677, No Iterations 12
[INFO] MomentumPredictor: 404.473 [ms]
[INFO] MatrixAssemblyPI: 81.693 [ms]
[INFO] MatrixAssemblyPII: 40.196 [ms]
GAMG:  Solving for p, Initial residual = 0.05767916519642875, Final residual = 0.0004920084040374976, No Iterations 5
[INFO] SolveP: 247.841 [ms]
time step continuity errors : sum local = 0.004926397332196897, global = 2.315824502105582e-05, cumulative = 0.0005237058636456276
[INFO] postSolveP: 20.928 [ms]
smoothSolver:  Solving for nuTilda, Initial residual = 0.0207499735630484, Final residual = 0.001240681659250228, No Iterations 3
[INFO] TimeStep: 1637.634 [ms]
ExecutionTime = 90.03 s  ClockTime = 91 s

Time = 39

velocityDampingConstraint velocityDamping damped 0 (0%) of cells, with max limit 300
[INFO] MatrixAssemblyU: 530.633 [ms]
smoothSolver:  Solving for Ux, Initial residual = 0.01198869081658665, Final residual = 0.001176228127387161, No Iterations 12
smoothSolver:  Solving for Uy, Initial residual = 0.06872076242811574, Final residual = 0.006136544641754675, No Iterations 13
smoothSolver:  Solving for Uz, Initial residual = 0.06739131154142348, Final residual = 0.006514494157106665, No Iterations 12
[INFO] MomentumPredictor: 402.895 [ms]
[INFO] MatrixAssemblyPI: 81.621 [ms]
[INFO] MatrixAssemblyPII: 40.111 [ms]
GAMG:  Solving for p, Initial residual = 0.05779698524592888, Final residual = 0.0005108111501695046, No Iterations 5
[INFO] SolveP: 248.817 [ms]
time step continuity errors : sum local = 0.005133488189288602, global = 3.616457978266445e-06, cumulative = 0.0005273223216238941
[INFO] postSolveP: 21.127 [ms]
smoothSolver:  Solving for nuTilda, Initial residual = 0.01353996272748475, Final residual = 0.001230349804597475, No Iterations 3
[INFO] TimeStep: 1638.426 [ms]
ExecutionTime = 92.09 s  ClockTime = 93 s

Time = 40

velocityDampingConstraint velocityDamping damped 0 (0%) of cells, with max limit 300
[INFO] MatrixAssemblyU: 528.14 [ms]
smoothSolver:  Solving for Ux, Initial residual = 0.0121159635703265, Final residual = 0.00118521978513732, No Iterations 12
smoothSolver:  Solving for Uy, Initial residual = 0.06983553673813502, Final residual = 0.006294880196883564, No Iterations 13
smoothSolver:  Solving for Uz, Initial residual = 0.06909416267021017, Final residual = 0.00673991190132524, No Iterations 12
[INFO] MomentumPredictor: 405.66 [ms]
[INFO] MatrixAssemblyPI: 82.506 [ms]
[INFO] MatrixAssemblyPII: 40.298 [ms]
GAMG:  Solving for p, Initial residual = 0.05795988921206129, Final residual = 0.0005258982533969496, No Iterations 5
[INFO] SolveP: 247.805 [ms]
time step continuity errors : sum local = 0.005291867102485028, global = -1.207551612314311e-05, cumulative = 0.000515246805500751
[INFO] postSolveP: 21.22 [ms]
smoothSolver:  Solving for nuTilda, Initial residual = 0.01962683454946628, Final residual = 0.001174867272519061, No Iterations 3
[INFO] TimeStep: 1639.492 [ms]
ExecutionTime = 94.14 s  ClockTime = 95 s

Time = 41

velocityDampingConstraint velocityDamping damped 0 (0%) of cells, with max limit 300
[INFO] MatrixAssemblyU: 527.178 [ms]
smoothSolver:  Solving for Ux, Initial residual = 0.01203351722950653, Final residual = 0.001192457519401652, No Iterations 12
smoothSolver:  Solving for Uy, Initial residual = 0.07038567134331788, Final residual = 0.006445098963475928, No Iterations 13
smoothSolver:  Solving for Uz, Initial residual = 0.07016002779866912, Final residual = 0.006930764107769097, No Iterations 12
[INFO] MomentumPredictor: 402.02 [ms]
[INFO] MatrixAssemblyPI: 81.98399999999999 [ms]
[INFO] MatrixAssemblyPII: 40.239 [ms]
GAMG:  Solving for p, Initial residual = 0.05747257627619107, Final residual = 0.0004891313748621492, No Iterations 5
[INFO] SolveP: 248.053 [ms]
time step continuity errors : sum local = 0.004919447627587965, global = -1.811087586430559e-05, cumulative = 0.0004971359296364454
[INFO] postSolveP: 21 [ms]
smoothSolver:  Solving for nuTilda, Initial residual = 0.01292068760704964, Final residual = 0.001166601986132743, No Iterations 3
[INFO] TimeStep: 1633.891 [ms]
ExecutionTime = 96.19 s  ClockTime = 97 s

Time = 42

velocityDampingConstraint velocityDamping damped 0 (0%) of cells, with max limit 300
[INFO] MatrixAssemblyU: 526.915 [ms]
smoothSolver:  Solving for Ux, Initial residual = 0.01207716669673593, Final residual = 0.001198841389116806, No Iterations 12
smoothSolver:  Solving for Uy, Initial residual = 0.07089090641688837, Final residual = 0.006627249818510944, No Iterations 13
smoothSolver:  Solving for Uz, Initial residual = 0.07069090947763798, Final residual = 0.006036014077740131, No Iterations 13
[INFO] MomentumPredictor: 413 [ms]
[INFO] MatrixAssemblyPI: 81.898 [ms]
[INFO] MatrixAssemblyPII: 40.48 [ms]
GAMG:  Solving for p, Initial residual = 0.05715853431674937, Final residual = 0.0004679161733897395, No Iterations 5
[INFO] SolveP: 248.357 [ms]
time step continuity errors : sum local = 0.004695676545199071, global = -2.023903206264512e-05, cumulative = 0.0004768968975738003
[INFO] postSolveP: 21.176 [ms]
smoothSolver:  Solving for nuTilda, Initial residual = 0.01861627966623235, Final residual = 0.001118395505052568, No Iterations 3
[INFO] TimeStep: 1644.868 [ms]
ExecutionTime = 98.26000000000001 s  ClockTime = 99 s

Time = 43

velocityDampingConstraint velocityDamping damped 0 (0%) of cells, with max limit 300
[INFO] MatrixAssemblyU: 526.981 [ms]
smoothSolver:  Solving for Ux, Initial residual = 0.01198896489461069, Final residual = 0.001027836785929925, No Iterations 13
smoothSolver:  Solving for Uy, Initial residual = 0.07163209070637902, Final residual = 0.006844011868963861, No Iterations 13
smoothSolver:  Solving for Uz, Initial residual = 0.0703915669898732, Final residual = 0.006124718949664591, No Iterations 13
[INFO] MomentumPredictor: 421.836 [ms]
[INFO] MatrixAssemblyPI: 81.786 [ms]
[INFO] MatrixAssemblyPII: 40.294 [ms]
GAMG:  Solving for p, Initial residual = 0.0564845922832976, Final residual = 0.0004850333176187769, No Iterations 5
[INFO] SolveP: 248.307 [ms]
time step continuity errors : sum local = 0.004844095253955898, global = -2.484623246888921e-05, cumulative = 0.0004520506651049111
[INFO] postSolveP: 21.046 [ms]
smoothSolver:  Solving for nuTilda, Initial residual = 0.01238680599085859, Final residual = 0.001109295462978648, No Iterations 3
[INFO] TimeStep: 1653.894 [ms]
ExecutionTime = 100.33 s  ClockTime = 101 s

Time = 44

velocityDampingConstraint velocityDamping damped 0 (0%) of cells, with max limit 300
[INFO] MatrixAssemblyU: 525.982 [ms]
smoothSolver:  Solving for Ux, Initial residual = 0.0120171540784099, Final residual = 0.001037102032172575, No Iterations 13
smoothSolver:  Solving for Uy, Initial residual = 0.07206716411353657, Final residual = 0.007040777873712675, No Iterations 13
smoothSolver:  Solving for Uz, Initial residual = 0.06984964117938218, Final residual = 0.006200574208677742, No Iterations 13
[INFO] MomentumPredictor: 422.782 [ms]
[INFO] MatrixAssemblyPI: 81.535 [ms]
[INFO] MatrixAssemblyPII: 40.39 [ms]
GAMG:  Solving for p, Initial residual = 0.05589858969340104, Final residual = 0.000483282972631511, No Iterations 5
[INFO] SolveP: 247.899 [ms]
time step continuity errors : sum local = 0.004780233429564119, global = -2.604680766075028e-05, cumulative = 0.0004260038574441608
[INFO] postSolveP: 21.057 [ms]
smoothSolver:  Solving for nuTilda, Initial residual = 0.01766287111003608, Final residual = 0.001065558158664457, No Iterations 3
[INFO] TimeStep: 1653.1 [ms]
ExecutionTime = 102.4 s  ClockTime = 103 s

Time = 45

velocityDampingConstraint velocityDamping damped 0 (0%) of cells, with max limit 300
[INFO] MatrixAssemblyU: 525.947 [ms]
smoothSolver:  Solving for Ux, Initial residual = 0.01189104921893544, Final residual = 0.001046206920140823, No Iterations 13
smoothSolver:  Solving for Uy, Initial residual = 0.07218872765602075, Final residual = 0.007165568191862987, No Iterations 13
smoothSolver:  Solving for Uz, Initial residual = 0.0690688712950436, Final residual = 0.006256519624818691, No Iterations 13
[INFO] MomentumPredictor: 423.584 [ms]
[INFO] MatrixAssemblyPI: 82.056 [ms]
[INFO] MatrixAssemblyPII: 40.245 [ms]
GAMG:  Solving for p, Initial residual = 0.05552500481747984, Final residual = 0.0004898794439213708, No Iterations 5
[INFO] SolveP: 248.972 [ms]
time step continuity errors : sum local = 0.004776643142550356, global = -1.01477907230426e-05, cumulative = 0.0004158560667211182
[INFO] postSolveP: 21.2 [ms]
smoothSolver:  Solving for nuTilda, Initial residual = 0.01183973463801018, Final residual = 0.001054641213197272, No Iterations 3
[INFO] TimeStep: 1655.265 [ms]
ExecutionTime = 104.47 s  ClockTime = 105 s

Time = 46

velocityDampingConstraint velocityDamping damped 0 (0%) of cells, with max limit 300
[INFO] MatrixAssemblyU: 525.473 [ms]
smoothSolver:  Solving for Ux, Initial residual = 0.01176463598088663, Final residual = 0.001049151856662516, No Iterations 13
smoothSolver:  Solving for Uy, Initial residual = 0.07210399212511613, Final residual = 0.006168127843745413, No Iterations 14
smoothSolver:  Solving for Uz, Initial residual = 0.0678086697345386, Final residual = 0.006301130824071249, No Iterations 13
[INFO] MomentumPredictor: 431.522 [ms]
[INFO] MatrixAssemblyPI: 82.533 [ms]
[INFO] MatrixAssemblyPII: 40.268 [ms]
GAMG:  Solving for p, Initial residual = 0.05486466183842564, Final residual = 0.0004935531492629269, No Iterations 5
[INFO] SolveP: 247.948 [ms]
time step continuity errors : sum local = 0.004761574814591586, global = 6.564618151946142e-06, cumulative = 0.0004224206848730644
[INFO] postSolveP: 21.072 [ms]
smoothSolver:  Solving for nuTilda, Initial residual = 0.01676800938311024, Final residual = 0.00101578603271229, No Iterations 3
[INFO] TimeStep: 1661.887 [ms]
ExecutionTime = 106.56 s  ClockTime = 107 s

Time = 47

velocityDampingConstraint velocityDamping damped 0 (0%) of cells, with max limit 300
[INFO] MatrixAssemblyU: 525.558 [ms]
smoothSolver:  Solving for Ux, Initial residual = 0.01151559405422787, Final residual = 0.001052993838587486, No Iterations 13
smoothSolver:  Solving for Uy, Initial residual = 0.07167435588066248, Final residual = 0.006162083819014182, No Iterations 14
smoothSolver:  Solving for Uz, Initial residual = 0.06645212899068402, Final residual = 0.006337192730993678, No Iterations 13
[INFO] MomentumPredictor: 429.686 [ms]
[INFO] MatrixAssemblyPI: 81.765 [ms]
[INFO] MatrixAssemblyPII: 40.09 [ms]
GAMG:  Solving for p, Initial residual = 0.05411258885033628, Final residual = 0.0004813092181811219, No Iterations 5
[INFO] SolveP: 248.778 [ms]
time step continuity errors : sum local = 0.004614965661393197, global = 2.17603513609204e-05, cumulative = 0.0004441810362339848
[INFO] postSolveP: 21.249 [ms]
smoothSolver:  Solving for nuTilda, Initial residual = 0.01130574021103803, Final residual = 0.001006094338889681, No Iterations 3
[INFO] TimeStep: 1659.018 [ms]
ExecutionTime = 108.63 s  ClockTime = 109 s

Time = 48

velocityDampingConstraint velocityDamping damped 0 (0%) of cells, with max limit 300
[INFO] MatrixAssemblyU: 525.775 [ms]
smoothSolver:  Solving for Ux, Initial residual = 0.0114606516873017, Final residual = 0.001057891186552137, No Iterations 13
smoothSolver:  Solving for Uy, Initial residual = 0.07135675120547577, Final residual = 0.00616261981853762, No Iterations 14
smoothSolver:  Solving for Uz, Initial residual = 0.06529287966843365, Final residual = 0.006332845638178241, No Iterations 13
[INFO] MomentumPredictor: 431.599 [ms]
[INFO] MatrixAssemblyPI: 81.5 [ms]
[INFO] MatrixAssemblyPII: 40.388 [ms]
GAMG:  Solving for p, Initial residual = 0.05318341396498527, Final residual = 0.0004828667070956786, No Iterations 5
[INFO] SolveP: 248.098 [ms]
time step continuity errors : sum local = 0.004600189296782921, global = 2.036612474646947e-05, cumulative = 0.0004645471609804542
[INFO] postSolveP: 20.928 [ms]
smoothSolver:  Solving for nuTilda, Initial residual = 0.01596880951373734, Final residual = 0.0009736728216180846, No Iterations 3
[INFO] TimeStep: 1661.999 [ms]
ExecutionTime = 110.71 s  ClockTime = 111 s

Time = 49

velocityDampingConstraint velocityDamping damped 0 (0%) of cells, with max limit 300
[INFO] MatrixAssemblyU: 525.2380000000001 [ms]
smoothSolver:  Solving for Ux, Initial residual = 0.01134367943028272, Final residual = 0.001061196683342646, No Iterations 13
smoothSolver:  Solving for Uy, Initial residual = 0.07074259561557439, Final residual = 0.006146489897825282, No Iterations 14
smoothSolver:  Solving for Uz, Initial residual = 0.06424503344920068, Final residual = 0.006315647951782959, No Iterations 13
[INFO] MomentumPredictor: 429.893 [ms]
[INFO] MatrixAssemblyPI: 82.116 [ms]
[INFO] MatrixAssemblyPII: 40.246 [ms]
GAMG:  Solving for p, Initial residual = 0.05242216012773276, Final residual = 0.0005000590896977778, No Iterations 5
[INFO] SolveP: 248.3 [ms]
time step continuity errors : sum local = 0.004734827148545964, global = 1.306002202813085e-05, cumulative = 0.0004776071830085851
[INFO] postSolveP: 21.214 [ms]
smoothSolver:  Solving for nuTilda, Initial residual = 0.0108515520980203, Final residual = 0.0009674832664091347, No Iterations 3
[INFO] TimeStep: 1659.525 [ms]
ExecutionTime = 112.79 s  ClockTime = 113 s

Time = 50

velocityDampingConstraint velocityDamping damped 0 (0%) of cells, with max limit 300
[INFO] MatrixAssemblyU: 524.419 [ms]
smoothSolver:  Solving for Ux, Initial residual = 0.01134176262476425, Final residual = 0.001061581974759034, No Iterations 13
smoothSolver:  Solving for Uy, Initial residual = 0.06980432412193607, Final residual = 0.006085471650813495, No Iterations 14
smoothSolver:  Solving for Uz, Initial residual = 0.06328283718720637, Final residual = 0.006289442674035984, No Iterations 13
[INFO] MomentumPredictor: 431.802 [ms]
[INFO] MatrixAssemblyPI: 81.739 [ms]
[INFO] MatrixAssemblyPII: 40.125 [ms]
GAMG:  Solving for p, Initial residual = 0.05216732727953961, Final residual = 0.0005105540730656093, No Iterations 5
[INFO] SolveP: 248.167 [ms]
time step continuity errors : sum local = 0.004799300441564755, global = -1.249101554760174e-06, cumulative = 0.0004763580814538249
[INFO] postSolveP: 20.923 [ms]
smoothSolver:  Solving for nuTilda, Initial residual = 0.01527480976879898, Final residual = 0.0009406938950611301, No Iterations 3
[INFO] TimeStep: 1660.938 [ms]
ExecutionTime = 114.86 s  ClockTime = 115 s

End

Finalising parallel run
