/*---------------------------------------------------------------------------*\
| =========                 |                                                 |
| \\      /  F ield         | OpenFOAM: The Open Source CFD Toolbox           |
|  \\    /   O peration     | Version:  2306                                  |
|   \\  /    A nd           | Website:  www.openfoam.com                      |
|    \\/     M anipulation  |                                                 |
\*---------------------------------------------------------------------------*/
Build  : a6e826bd55-20230630 OPENFOAM=2306 version=v2306
Arch   : "LSB;label=32;scalar=64"
Exec   : icoFoam -parallel -case /tmp/lidDrivenCavity/workspace/7c7a8263097a5b20e017e50072a7f13a/case
Date   : Dec 21 2023
Time   : 03:43:40
Host   : nla-gpu2.ianm.kit.edu
PID    : 393612
I/O    : uncollated
Case   : /tmp/lidDrivenCavity/workspace/7c7a8263097a5b20e017e50072a7f13a/case
nProcs : 16
Hosts  :
(
    (nla-gpu2.ianm.kit.edu 16)
)
Pstream initialized with:
    floatTransfer      : false
    nProcsSimpleSum    : 0
    nonBlockingExchange: 0 (tuning: 0)
    exchange algorithm : -1
    commsType          : nonBlocking
    polling iterations : 0
trapFpe: Floating point exception trapping enabled (FOAM_SIGFPE).
fileModificationChecking : Monitoring run-time modified files using timeStampMaster (fileModificationSkew 5, maxFileModificationPolls 20)
allowSystemOperations : Allowing user-supplied system call operations

// * * * * * * * * * * * * * * * * * * * * * * * * * * * * * * * * * * * * * //
Create time

--> FOAM Warning : 
    From void* Foam::dlLibraryTable::openLibrary(const Foam::fileName&, bool)
    in file db/dynamicLibrary/dlLibraryTable/dlLibraryTable.C at line 188
    Could not load "libpetscFoam.so"
libpetscFoam.so: cannot open shared object file: No such file or directory
Create mesh for time = 0


PISO: Operating solver in PISO mode

Reading transportProperties

Reading field p

Reading field U

Reading/calculating face flux field phi


Starting time loop

Time = 0.000166

Courant Number mean: 8.14055e-18 max: 3.11001e-14
[INFO] MatrixAssemblyU: 246.376 [ms]
DILUPBiCGStab:  Solving for Ux, Initial residual = 1, Final residual = 0.0163135, No Iterations 5
DILUPBiCGStab:  Solving for Uy:  solution singularity
DILUPBiCGStab:  Solving for Uz:  solution singularity
[INFO] MomentumPredictor: 964.649 [ms]
[INFO] MatrixAssemblyPI: 249.031 [ms]
[INFO] AdjustPhi: 14.112 [ms]
[INFO] ConstrainPressure: 0.019 [ms]
[INFO] MatrixAssemblyPII: 71.575 [ms]
[13] 
[13] 
[13] --> FOAM FATAL IO ERROR: (openfoam-2306)
[13] Entry 'smoother' not found in dictionary ""
[13] 
[13] 
[13]     From const Foam::entry& Foam::dictionary::lookupEntry(const Foam::word&, Foam::keyType::option) const
[13]     in file db/dictionary/dictionary.C at line 375.
[13] 
FOAM parallel run exiting
[13] 
application called MPI_Abort(MPI_COMM_WORLD, 1) - process 13
[cli_13]: aborting job:
application called MPI_Abort(MPI_COMM_WORLD, 1) - process 13
