/*---------------------------------------------------------------------------*\
| =========                 |                                                 |
| \\      /  F ield         | OpenFOAM: The Open Source CFD Toolbox           |
|  \\    /   O peration     | Version:  v2106                                 |
|   \\  /    A nd           | Website:  www.openfoam.com                      |
|    \\/     M anipulation  |                                                 |
\*---------------------------------------------------------------------------*/
Build  : f815a12bba-20210902 OPENFOAM=2106
Arch   : "LSB;label=32;scalar=64"
Exec   : decomposePar -force
Date   : Jun 26 2023
Time   : 11:03:18
Host   : nla-gpu2.ianm.kit.edu
PID    : 4113794
--> FOAM Warning : 
    From Foam::fileName Foam::cwd_L()
    in file POSIX.C at line 494
    PWD is not the cwd() - reverting to physical description
I/O    : uncollated
--> FOAM Warning : 
    From Foam::fileName Foam::cwd_L()
    in file POSIX.C at line 494
    PWD is not the cwd() - reverting to physical description
Case   : /home/greole/data/code/exasim_project/micro_benchmarks/LidDrivenCavity3D/workspace/f44547f1458609a4d3add3b682420314/case
nProcs : 1
trapFpe: Floating point exception trapping enabled (FOAM_SIGFPE).
fileModificationChecking : Monitoring run-time modified files using timeStampMaster (fileModificationSkew 5, maxFileModificationPolls 20)
allowSystemOperations : Allowing user-supplied system call operations

// * * * * * * * * * * * * * * * * * * * * * * * * * * * * * * * * * * * * * //
Create time

--> FOAM Warning : 
    From void* Foam::dlLibraryTable::openLibrary(const Foam::fileName&, bool)
    in file db/dynamicLibrary/dlLibraryTable/dlLibraryTable.C at line 188
    Could not load "libpetscFoam.so"
libpetscFoam.so: cannot open shared object file: No such file or directory
--> FOAM Warning : 
    From virtual void Foam::Time::readDict()
    in file db/Time/TimeIO.C at line 411
    Reading "/home/greole/data/code/exasim_project/micro_benchmarks/LidDrivenCavity3D/workspace/f44547f1458609a4d3add3b682420314/case/system/controlDict" at line 17 to 47
    Disabled binary format compression (inefficient/ineffective)


Decomposing mesh

Create mesh

Calculating distribution of cells
Decomposition method simple [16] (region region0)

Finished decomposition in 271.8 s

Calculating original mesh data

Distributing cells to processors

Distributing faces to processors

Distributing points to processors

Constructing processor meshes
--> FOAM Warning : 
    From void* Foam::dlLibraryTable::openLibrary(const Foam::fileName&, bool)
    in file db/dynamicLibrary/dlLibraryTable/dlLibraryTable.C at line 188
    Could not load "libpetscFoam.so"
libpetscFoam.so: cannot open shared object file: No such file or directory
--> FOAM Warning : 
    From virtual void Foam::Time::readDict()
    in file db/Time/TimeIO.C at line 411
    Reading "/home/greole/data/code/exasim_project/micro_benchmarks/LidDrivenCavity3D/workspace/f44547f1458609a4d3add3b682420314/case/system/controlDict" at line 17 to 47
    Disabled binary format compression (inefficient/ineffective)

Processor 0
    Number of cells = 1687500
    Number of faces shared with processor 1 = 22500
    Number of faces shared with processor 4 = 11250
    Number of faces shared with processor 8 = 11250
    Number of processor patches = 3
    Number of processor faces = 45000
    Number of boundary faces = 45000
--> FOAM Warning : 
    From void* Foam::dlLibraryTable::openLibrary(const Foam::fileName&, bool)
    in file db/dynamicLibrary/dlLibraryTable/dlLibraryTable.C at line 188
    Could not load "libpetscFoam.so"
libpetscFoam.so: cannot open shared object file: No such file or directory
--> FOAM Warning : 
    From virtual void Foam::Time::readDict()
    in file db/Time/TimeIO.C at line 411
    Reading "/home/greole/data/code/exasim_project/micro_benchmarks/LidDrivenCavity3D/workspace/f44547f1458609a4d3add3b682420314/case/system/controlDict" at line 17 to 47
    Disabled binary format compression (inefficient/ineffective)

Processor 1
    Number of cells = 1687500
    Number of faces shared with processor 0 = 22500
    Number of faces shared with processor 2 = 22500
    Number of faces shared with processor 5 = 11250
    Number of faces shared with processor 9 = 11250
    Number of processor patches = 4
    Number of processor faces = 67500
    Number of boundary faces = 22500
--> FOAM Warning : 
    From void* Foam::dlLibraryTable::openLibrary(const Foam::fileName&, bool)
    in file db/dynamicLibrary/dlLibraryTable/dlLibraryTable.C at line 188
    Could not load "libpetscFoam.so"
libpetscFoam.so: cannot open shared object file: No such file or directory
--> FOAM Warning : 
    From virtual void Foam::Time::readDict()
    in file db/Time/TimeIO.C at line 411
    Reading "/home/greole/data/code/exasim_project/micro_benchmarks/LidDrivenCavity3D/workspace/f44547f1458609a4d3add3b682420314/case/system/controlDict" at line 17 to 47
    Disabled binary format compression (inefficient/ineffective)

Processor 2
    Number of cells = 1687500
    Number of faces shared with processor 1 = 22500
    Number of faces shared with processor 3 = 22500
    Number of faces shared with processor 6 = 11250
    Number of faces shared with processor 10 = 11250
    Number of processor patches = 4
    Number of processor faces = 67500
    Number of boundary faces = 22500
--> FOAM Warning : 
    From void* Foam::dlLibraryTable::openLibrary(const Foam::fileName&, bool)
    in file db/dynamicLibrary/dlLibraryTable/dlLibraryTable.C at line 188
    Could not load "libpetscFoam.so"
libpetscFoam.so: cannot open shared object file: No such file or directory
--> FOAM Warning : 
    From virtual void Foam::Time::readDict()
    in file db/Time/TimeIO.C at line 411
    Reading "/home/greole/data/code/exasim_project/micro_benchmarks/LidDrivenCavity3D/workspace/f44547f1458609a4d3add3b682420314/case/system/controlDict" at line 17 to 47
    Disabled binary format compression (inefficient/ineffective)

Processor 3
    Number of cells = 1687500
    Number of faces shared with processor 2 = 22500
    Number of faces shared with processor 7 = 11250
    Number of faces shared with processor 11 = 11250
    Number of processor patches = 3
    Number of processor faces = 45000
    Number of boundary faces = 45000
--> FOAM Warning : 
    From void* Foam::dlLibraryTable::openLibrary(const Foam::fileName&, bool)
    in file db/dynamicLibrary/dlLibraryTable/dlLibraryTable.C at line 188
    Could not load "libpetscFoam.so"
libpetscFoam.so: cannot open shared object file: No such file or directory
--> FOAM Warning : 
    From virtual void Foam::Time::readDict()
    in file db/Time/TimeIO.C at line 411
    Reading "/home/greole/data/code/exasim_project/micro_benchmarks/LidDrivenCavity3D/workspace/f44547f1458609a4d3add3b682420314/case/system/controlDict" at line 17 to 47
    Disabled binary format compression (inefficient/ineffective)

Processor 4
    Number of cells = 1687500
    Number of faces shared with processor 0 = 11250
    Number of faces shared with processor 5 = 22500
    Number of faces shared with processor 12 = 11250
    Number of processor patches = 3
    Number of processor faces = 45000
    Number of boundary faces = 45000
--> FOAM Warning : 
    From void* Foam::dlLibraryTable::openLibrary(const Foam::fileName&, bool)
    in file db/dynamicLibrary/dlLibraryTable/dlLibraryTable.C at line 188
    Could not load "libpetscFoam.so"
libpetscFoam.so: cannot open shared object file: No such file or directory
--> FOAM Warning : 
    From virtual void Foam::Time::readDict()
    in file db/Time/TimeIO.C at line 411
    Reading "/home/greole/data/code/exasim_project/micro_benchmarks/LidDrivenCavity3D/workspace/f44547f1458609a4d3add3b682420314/case/system/controlDict" at line 17 to 47
    Disabled binary format compression (inefficient/ineffective)

Processor 5
    Number of cells = 1687500
    Number of faces shared with processor 1 = 11250
    Number of faces shared with processor 4 = 22500
    Number of faces shared with processor 6 = 22500
    Number of faces shared with processor 13 = 11250
    Number of processor patches = 4
    Number of processor faces = 67500
    Number of boundary faces = 22500
--> FOAM Warning : 
    From void* Foam::dlLibraryTable::openLibrary(const Foam::fileName&, bool)
    in file db/dynamicLibrary/dlLibraryTable/dlLibraryTable.C at line 188
    Could not load "libpetscFoam.so"
libpetscFoam.so: cannot open shared object file: No such file or directory
--> FOAM Warning : 
    From virtual void Foam::Time::readDict()
    in file db/Time/TimeIO.C at line 411
    Reading "/home/greole/data/code/exasim_project/micro_benchmarks/LidDrivenCavity3D/workspace/f44547f1458609a4d3add3b682420314/case/system/controlDict" at line 17 to 47
    Disabled binary format compression (inefficient/ineffective)

Processor 6
    Number of cells = 1687500
    Number of faces shared with processor 2 = 11250
    Number of faces shared with processor 5 = 22500
    Number of faces shared with processor 7 = 22500
    Number of faces shared with processor 14 = 11250
    Number of processor patches = 4
    Number of processor faces = 67500
    Number of boundary faces = 22500
--> FOAM Warning : 
    From void* Foam::dlLibraryTable::openLibrary(const Foam::fileName&, bool)
    in file db/dynamicLibrary/dlLibraryTable/dlLibraryTable.C at line 188
    Could not load "libpetscFoam.so"
libpetscFoam.so: cannot open shared object file: No such file or directory
--> FOAM Warning : 
    From virtual void Foam::Time::readDict()
    in file db/Time/TimeIO.C at line 411
    Reading "/home/greole/data/code/exasim_project/micro_benchmarks/LidDrivenCavity3D/workspace/f44547f1458609a4d3add3b682420314/case/system/controlDict" at line 17 to 47
    Disabled binary format compression (inefficient/ineffective)

Processor 7
    Number of cells = 1687500
    Number of faces shared with processor 3 = 11250
    Number of faces shared with processor 6 = 22500
    Number of faces shared with processor 15 = 11250
    Number of processor patches = 3
    Number of processor faces = 45000
    Number of boundary faces = 45000
--> FOAM Warning : 
    From void* Foam::dlLibraryTable::openLibrary(const Foam::fileName&, bool)
    in file db/dynamicLibrary/dlLibraryTable/dlLibraryTable.C at line 188
    Could not load "libpetscFoam.so"
libpetscFoam.so: cannot open shared object file: No such file or directory
--> FOAM Warning : 
    From virtual void Foam::Time::readDict()
    in file db/Time/TimeIO.C at line 411
    Reading "/home/greole/data/code/exasim_project/micro_benchmarks/LidDrivenCavity3D/workspace/f44547f1458609a4d3add3b682420314/case/system/controlDict" at line 17 to 47
    Disabled binary format compression (inefficient/ineffective)

Processor 8
    Number of cells = 1687500
    Number of faces shared with processor 0 = 11250
    Number of faces shared with processor 9 = 22500
    Number of faces shared with processor 12 = 11250
    Number of processor patches = 3
    Number of processor faces = 45000
    Number of boundary faces = 45000
--> FOAM Warning : 
    From void* Foam::dlLibraryTable::openLibrary(const Foam::fileName&, bool)
    in file db/dynamicLibrary/dlLibraryTable/dlLibraryTable.C at line 188
    Could not load "libpetscFoam.so"
libpetscFoam.so: cannot open shared object file: No such file or directory
--> FOAM Warning : 
    From virtual void Foam::Time::readDict()
    in file db/Time/TimeIO.C at line 411
    Reading "/home/greole/data/code/exasim_project/micro_benchmarks/LidDrivenCavity3D/workspace/f44547f1458609a4d3add3b682420314/case/system/controlDict" at line 17 to 47
    Disabled binary format compression (inefficient/ineffective)

Processor 9
    Number of cells = 1687500
    Number of faces shared with processor 1 = 11250
    Number of faces shared with processor 8 = 22500
    Number of faces shared with processor 10 = 22500
    Number of faces shared with processor 13 = 11250
    Number of processor patches = 4
    Number of processor faces = 67500
    Number of boundary faces = 22500
--> FOAM Warning : 
    From void* Foam::dlLibraryTable::openLibrary(const Foam::fileName&, bool)
    in file db/dynamicLibrary/dlLibraryTable/dlLibraryTable.C at line 188
    Could not load "libpetscFoam.so"
libpetscFoam.so: cannot open shared object file: No such file or directory
--> FOAM Warning : 
    From virtual void Foam::Time::readDict()
    in file db/Time/TimeIO.C at line 411
    Reading "/home/greole/data/code/exasim_project/micro_benchmarks/LidDrivenCavity3D/workspace/f44547f1458609a4d3add3b682420314/case/system/controlDict" at line 17 to 47
    Disabled binary format compression (inefficient/ineffective)

Processor 10
    Number of cells = 1687500
    Number of faces shared with processor 2 = 11250
    Number of faces shared with processor 9 = 22500
    Number of faces shared with processor 11 = 22500
    Number of faces shared with processor 14 = 11250
    Number of processor patches = 4
    Number of processor faces = 67500
    Number of boundary faces = 22500
--> FOAM Warning : 
    From void* Foam::dlLibraryTable::openLibrary(const Foam::fileName&, bool)
    in file db/dynamicLibrary/dlLibraryTable/dlLibraryTable.C at line 188
    Could not load "libpetscFoam.so"
libpetscFoam.so: cannot open shared object file: No such file or directory
--> FOAM Warning : 
    From virtual void Foam::Time::readDict()
    in file db/Time/TimeIO.C at line 411
    Reading "/home/greole/data/code/exasim_project/micro_benchmarks/LidDrivenCavity3D/workspace/f44547f1458609a4d3add3b682420314/case/system/controlDict" at line 17 to 47
    Disabled binary format compression (inefficient/ineffective)

Processor 11
    Number of cells = 1687500
    Number of faces shared with processor 3 = 11250
    Number of faces shared with processor 10 = 22500
    Number of faces shared with processor 15 = 11250
    Number of processor patches = 3
    Number of processor faces = 45000
    Number of boundary faces = 45000
--> FOAM Warning : 
    From void* Foam::dlLibraryTable::openLibrary(const Foam::fileName&, bool)
    in file db/dynamicLibrary/dlLibraryTable/dlLibraryTable.C at line 188
    Could not load "libpetscFoam.so"
libpetscFoam.so: cannot open shared object file: No such file or directory
--> FOAM Warning : 
    From virtual void Foam::Time::readDict()
    in file db/Time/TimeIO.C at line 411
    Reading "/home/greole/data/code/exasim_project/micro_benchmarks/LidDrivenCavity3D/workspace/f44547f1458609a4d3add3b682420314/case/system/controlDict" at line 17 to 47
    Disabled binary format compression (inefficient/ineffective)

Processor 12
    Number of cells = 1687500
    Number of faces shared with processor 4 = 11250
    Number of faces shared with processor 8 = 11250
    Number of faces shared with processor 13 = 22500
    Number of processor patches = 3
    Number of processor faces = 45000
    Number of boundary faces = 45000
--> FOAM Warning : 
    From void* Foam::dlLibraryTable::openLibrary(const Foam::fileName&, bool)
    in file db/dynamicLibrary/dlLibraryTable/dlLibraryTable.C at line 188
    Could not load "libpetscFoam.so"
libpetscFoam.so: cannot open shared object file: No such file or directory
--> FOAM Warning : 
    From virtual void Foam::Time::readDict()
    in file db/Time/TimeIO.C at line 411
    Reading "/home/greole/data/code/exasim_project/micro_benchmarks/LidDrivenCavity3D/workspace/f44547f1458609a4d3add3b682420314/case/system/controlDict" at line 17 to 47
    Disabled binary format compression (inefficient/ineffective)

Processor 13
    Number of cells = 1687500
    Number of faces shared with processor 5 = 11250
    Number of faces shared with processor 9 = 11250
    Number of faces shared with processor 12 = 22500
    Number of faces shared with processor 14 = 22500
    Number of processor patches = 4
    Number of processor faces = 67500
    Number of boundary faces = 22500
--> FOAM Warning : 
    From void* Foam::dlLibraryTable::openLibrary(const Foam::fileName&, bool)
    in file db/dynamicLibrary/dlLibraryTable/dlLibraryTable.C at line 188
    Could not load "libpetscFoam.so"
libpetscFoam.so: cannot open shared object file: No such file or directory
--> FOAM Warning : 
    From virtual void Foam::Time::readDict()
    in file db/Time/TimeIO.C at line 411
    Reading "/home/greole/data/code/exasim_project/micro_benchmarks/LidDrivenCavity3D/workspace/f44547f1458609a4d3add3b682420314/case/system/controlDict" at line 17 to 47
    Disabled binary format compression (inefficient/ineffective)

Processor 14
    Number of cells = 1687500
    Number of faces shared with processor 6 = 11250
    Number of faces shared with processor 10 = 11250
    Number of faces shared with processor 13 = 22500
    Number of faces shared with processor 15 = 22500
    Number of processor patches = 4
    Number of processor faces = 67500
    Number of boundary faces = 22500
--> FOAM Warning : 
    From void* Foam::dlLibraryTable::openLibrary(const Foam::fileName&, bool)
    in file db/dynamicLibrary/dlLibraryTable/dlLibraryTable.C at line 188
    Could not load "libpetscFoam.so"
libpetscFoam.so: cannot open shared object file: No such file or directory
--> FOAM Warning : 
    From virtual void Foam::Time::readDict()
    in file db/Time/TimeIO.C at line 411
    Reading "/home/greole/data/code/exasim_project/micro_benchmarks/LidDrivenCavity3D/workspace/f44547f1458609a4d3add3b682420314/case/system/controlDict" at line 17 to 47
    Disabled binary format compression (inefficient/ineffective)

Processor 15
    Number of cells = 1687500
    Number of faces shared with processor 7 = 11250
    Number of faces shared with processor 11 = 11250
    Number of faces shared with processor 14 = 22500
    Number of processor patches = 3
    Number of processor faces = 45000
    Number of boundary faces = 45000

Number of processor faces = 450000
Max number of cells = 1687500 (0% above average 1.6875e+06)
Max number of processor patches = 4 (14.2857% above average 3.5)
Max number of faces between processors = 67500 (20% above average 56250)

Time = 0

Processor 0: field transfer
--> FOAM Warning : 
    From void* Foam::dlLibraryTable::openLibrary(const Foam::fileName&, bool)
    in file db/dynamicLibrary/dlLibraryTable/dlLibraryTable.C at line 188
    Could not load "libpetscFoam.so"
libpetscFoam.so: cannot open shared object file: No such file or directory
--> FOAM Warning : 
    From virtual void Foam::Time::readDict()
    in file db/Time/TimeIO.C at line 411
    Reading "/home/greole/data/code/exasim_project/micro_benchmarks/LidDrivenCavity3D/workspace/f44547f1458609a4d3add3b682420314/case/system/controlDict" at line 17 to 47
    Disabled binary format compression (inefficient/ineffective)
Processor 1: field transfer
--> FOAM Warning : 
    From void* Foam::dlLibraryTable::openLibrary(const Foam::fileName&, bool)
    in file db/dynamicLibrary/dlLibraryTable/dlLibraryTable.C at line 188
    Could not load "libpetscFoam.so"
libpetscFoam.so: cannot open shared object file: No such file or directory
--> FOAM Warning : 
    From virtual void Foam::Time::readDict()
    in file db/Time/TimeIO.C at line 411
    Reading "/home/greole/data/code/exasim_project/micro_benchmarks/LidDrivenCavity3D/workspace/f44547f1458609a4d3add3b682420314/case/system/controlDict" at line 17 to 47
    Disabled binary format compression (inefficient/ineffective)
Processor 2: field transfer
--> FOAM Warning : 
    From void* Foam::dlLibraryTable::openLibrary(const Foam::fileName&, bool)
    in file db/dynamicLibrary/dlLibraryTable/dlLibraryTable.C at line 188
    Could not load "libpetscFoam.so"
libpetscFoam.so: cannot open shared object file: No such file or directory
--> FOAM Warning : 
    From virtual void Foam::Time::readDict()
    in file db/Time/TimeIO.C at line 411
    Reading "/home/greole/data/code/exasim_project/micro_benchmarks/LidDrivenCavity3D/workspace/f44547f1458609a4d3add3b682420314/case/system/controlDict" at line 17 to 47
    Disabled binary format compression (inefficient/ineffective)
Processor 3: field transfer
--> FOAM Warning : 
    From void* Foam::dlLibraryTable::openLibrary(const Foam::fileName&, bool)
    in file db/dynamicLibrary/dlLibraryTable/dlLibraryTable.C at line 188
    Could not load "libpetscFoam.so"
libpetscFoam.so: cannot open shared object file: No such file or directory
--> FOAM Warning : 
    From virtual void Foam::Time::readDict()
    in file db/Time/TimeIO.C at line 411
    Reading "/home/greole/data/code/exasim_project/micro_benchmarks/LidDrivenCavity3D/workspace/f44547f1458609a4d3add3b682420314/case/system/controlDict" at line 17 to 47
    Disabled binary format compression (inefficient/ineffective)
Processor 4: field transfer
--> FOAM Warning : 
    From void* Foam::dlLibraryTable::openLibrary(const Foam::fileName&, bool)
    in file db/dynamicLibrary/dlLibraryTable/dlLibraryTable.C at line 188
    Could not load "libpetscFoam.so"
libpetscFoam.so: cannot open shared object file: No such file or directory
--> FOAM Warning : 
    From virtual void Foam::Time::readDict()
    in file db/Time/TimeIO.C at line 411
    Reading "/home/greole/data/code/exasim_project/micro_benchmarks/LidDrivenCavity3D/workspace/f44547f1458609a4d3add3b682420314/case/system/controlDict" at line 17 to 47
    Disabled binary format compression (inefficient/ineffective)
Processor 5: field transfer
--> FOAM Warning : 
    From void* Foam::dlLibraryTable::openLibrary(const Foam::fileName&, bool)
    in file db/dynamicLibrary/dlLibraryTable/dlLibraryTable.C at line 188
    Could not load "libpetscFoam.so"
libpetscFoam.so: cannot open shared object file: No such file or directory
--> FOAM Warning : 
    From virtual void Foam::Time::readDict()
    in file db/Time/TimeIO.C at line 411
    Reading "/home/greole/data/code/exasim_project/micro_benchmarks/LidDrivenCavity3D/workspace/f44547f1458609a4d3add3b682420314/case/system/controlDict" at line 17 to 47
    Disabled binary format compression (inefficient/ineffective)
Processor 6: field transfer
--> FOAM Warning : 
    From void* Foam::dlLibraryTable::openLibrary(const Foam::fileName&, bool)
    in file db/dynamicLibrary/dlLibraryTable/dlLibraryTable.C at line 188
    Could not load "libpetscFoam.so"
libpetscFoam.so: cannot open shared object file: No such file or directory
--> FOAM Warning : 
    From virtual void Foam::Time::readDict()
    in file db/Time/TimeIO.C at line 411
    Reading "/home/greole/data/code/exasim_project/micro_benchmarks/LidDrivenCavity3D/workspace/f44547f1458609a4d3add3b682420314/case/system/controlDict" at line 17 to 47
    Disabled binary format compression (inefficient/ineffective)
Processor 7: field transfer
--> FOAM Warning : 
    From void* Foam::dlLibraryTable::openLibrary(const Foam::fileName&, bool)
    in file db/dynamicLibrary/dlLibraryTable/dlLibraryTable.C at line 188
    Could not load "libpetscFoam.so"
libpetscFoam.so: cannot open shared object file: No such file or directory
--> FOAM Warning : 
    From virtual void Foam::Time::readDict()
    in file db/Time/TimeIO.C at line 411
    Reading "/home/greole/data/code/exasim_project/micro_benchmarks/LidDrivenCavity3D/workspace/f44547f1458609a4d3add3b682420314/case/system/controlDict" at line 17 to 47
    Disabled binary format compression (inefficient/ineffective)
Processor 8: field transfer
--> FOAM Warning : 
    From void* Foam::dlLibraryTable::openLibrary(const Foam::fileName&, bool)
    in file db/dynamicLibrary/dlLibraryTable/dlLibraryTable.C at line 188
    Could not load "libpetscFoam.so"
libpetscFoam.so: cannot open shared object file: No such file or directory
--> FOAM Warning : 
    From virtual void Foam::Time::readDict()
    in file db/Time/TimeIO.C at line 411
    Reading "/home/greole/data/code/exasim_project/micro_benchmarks/LidDrivenCavity3D/workspace/f44547f1458609a4d3add3b682420314/case/system/controlDict" at line 17 to 47
    Disabled binary format compression (inefficient/ineffective)
Processor 9: field transfer
--> FOAM Warning : 
    From void* Foam::dlLibraryTable::openLibrary(const Foam::fileName&, bool)
    in file db/dynamicLibrary/dlLibraryTable/dlLibraryTable.C at line 188
    Could not load "libpetscFoam.so"
libpetscFoam.so: cannot open shared object file: No such file or directory
--> FOAM Warning : 
    From virtual void Foam::Time::readDict()
    in file db/Time/TimeIO.C at line 411
    Reading "/home/greole/data/code/exasim_project/micro_benchmarks/LidDrivenCavity3D/workspace/f44547f1458609a4d3add3b682420314/case/system/controlDict" at line 17 to 47
    Disabled binary format compression (inefficient/ineffective)
Processor 10: field transfer
--> FOAM Warning : 
    From void* Foam::dlLibraryTable::openLibrary(const Foam::fileName&, bool)
    in file db/dynamicLibrary/dlLibraryTable/dlLibraryTable.C at line 188
    Could not load "libpetscFoam.so"
libpetscFoam.so: cannot open shared object file: No such file or directory
--> FOAM Warning : 
    From virtual void Foam::Time::readDict()
    in file db/Time/TimeIO.C at line 411
    Reading "/home/greole/data/code/exasim_project/micro_benchmarks/LidDrivenCavity3D/workspace/f44547f1458609a4d3add3b682420314/case/system/controlDict" at line 17 to 47
    Disabled binary format compression (inefficient/ineffective)
Processor 11: field transfer
--> FOAM Warning : 
    From void* Foam::dlLibraryTable::openLibrary(const Foam::fileName&, bool)
    in file db/dynamicLibrary/dlLibraryTable/dlLibraryTable.C at line 188
    Could not load "libpetscFoam.so"
libpetscFoam.so: cannot open shared object file: No such file or directory
--> FOAM Warning : 
    From virtual void Foam::Time::readDict()
    in file db/Time/TimeIO.C at line 411
    Reading "/home/greole/data/code/exasim_project/micro_benchmarks/LidDrivenCavity3D/workspace/f44547f1458609a4d3add3b682420314/case/system/controlDict" at line 17 to 47
    Disabled binary format compression (inefficient/ineffective)
Processor 12: field transfer
--> FOAM Warning : 
    From void* Foam::dlLibraryTable::openLibrary(const Foam::fileName&, bool)
    in file db/dynamicLibrary/dlLibraryTable/dlLibraryTable.C at line 188
    Could not load "libpetscFoam.so"
libpetscFoam.so: cannot open shared object file: No such file or directory
--> FOAM Warning : 
    From virtual void Foam::Time::readDict()
    in file db/Time/TimeIO.C at line 411
    Reading "/home/greole/data/code/exasim_project/micro_benchmarks/LidDrivenCavity3D/workspace/f44547f1458609a4d3add3b682420314/case/system/controlDict" at line 17 to 47
    Disabled binary format compression (inefficient/ineffective)
Processor 13: field transfer
--> FOAM Warning : 
    From void* Foam::dlLibraryTable::openLibrary(const Foam::fileName&, bool)
    in file db/dynamicLibrary/dlLibraryTable/dlLibraryTable.C at line 188
    Could not load "libpetscFoam.so"
libpetscFoam.so: cannot open shared object file: No such file or directory
--> FOAM Warning : 
    From virtual void Foam::Time::readDict()
    in file db/Time/TimeIO.C at line 411
    Reading "/home/greole/data/code/exasim_project/micro_benchmarks/LidDrivenCavity3D/workspace/f44547f1458609a4d3add3b682420314/case/system/controlDict" at line 17 to 47
    Disabled binary format compression (inefficient/ineffective)
Processor 14: field transfer
--> FOAM Warning : 
    From void* Foam::dlLibraryTable::openLibrary(const Foam::fileName&, bool)
    in file db/dynamicLibrary/dlLibraryTable/dlLibraryTable.C at line 188
    Could not load "libpetscFoam.so"
libpetscFoam.so: cannot open shared object file: No such file or directory
--> FOAM Warning : 
    From virtual void Foam::Time::readDict()
    in file db/Time/TimeIO.C at line 411
    Reading "/home/greole/data/code/exasim_project/micro_benchmarks/LidDrivenCavity3D/workspace/f44547f1458609a4d3add3b682420314/case/system/controlDict" at line 17 to 47
    Disabled binary format compression (inefficient/ineffective)
Processor 15: field transfer
--> FOAM Warning : 
    From void* Foam::dlLibraryTable::openLibrary(const Foam::fileName&, bool)
    in file db/dynamicLibrary/dlLibraryTable/dlLibraryTable.C at line 188
    Could not load "libpetscFoam.so"
libpetscFoam.so: cannot open shared object file: No such file or directory
--> FOAM Warning : 
    From virtual void Foam::Time::readDict()
    in file db/Time/TimeIO.C at line 411
    Reading "/home/greole/data/code/exasim_project/micro_benchmarks/LidDrivenCavity3D/workspace/f44547f1458609a4d3add3b682420314/case/system/controlDict" at line 17 to 47
    Disabled binary format compression (inefficient/ineffective)

End

