/*---------------------------------------------------------------------------*\
| =========                 |                                                 |
| \\      /  F ield         | OpenFOAM: The Open Source CFD Toolbox           |
|  \\    /   O peration     | Version:  v2106                                 |
|   \\  /    A nd           | Website:  www.openfoam.com                      |
|    \\/     M anipulation  |                                                 |
\*---------------------------------------------------------------------------*/
Build  : f815a12bba-20210902 OPENFOAM=2106
Arch   : "LSB;label=32;scalar=64"
Exec   : icoFoam -parallel -case /home/greole/data/code/exasim_project/micro_benchmarks/LidDrivenCavity3D/workspace/f44547f1458609a4d3add3b682420314/case
Date   : Jun 27 2023
Time   : 01:43:17
Host   : nla-gpu2.ianm.kit.edu
PID    : 218665
I/O    : uncollated
Case   : /home/greole/data/code/exasim_project/micro_benchmarks/LidDrivenCavity3D/workspace/f44547f1458609a4d3add3b682420314/case
nProcs : 16
Hosts  :
(
    (nla-gpu2.ianm.kit.edu 16)
)
Pstream initialized with:
    floatTransfer      : 0
    nProcsSimpleSum    : 0
    commsType          : nonBlocking
    polling iterations : 0
trapFpe: Floating point exception trapping enabled (FOAM_SIGFPE).
fileModificationChecking : Monitoring run-time modified files using timeStampMaster (fileModificationSkew 5, maxFileModificationPolls 20)
allowSystemOperations : Allowing user-supplied system call operations

// * * * * * * * * * * * * * * * * * * * * * * * * * * * * * * * * * * * * * //
Create time

--> FOAM Warning : 
    From void* Foam::dlLibraryTable::openLibrary(const Foam::fileName&, bool)
    in file db/dynamicLibrary/dlLibraryTable/dlLibraryTable.C at line 188
    Could not load "libpetscFoam.so"
libpetscFoam.so: cannot open shared object file: No such file or directory
--> FOAM Warning : 
    From virtual void Foam::Time::readDict()
    in file db/Time/TimeIO.C at line 411
    Reading "/home/greole/data/code/exasim_project/micro_benchmarks/LidDrivenCavity3D/workspace/f44547f1458609a4d3add3b682420314/case/system/controlDict" at line 17 to 47
    Disabled binary format compression (inefficient/ineffective)
Create mesh for time = 0


PISO: Operating solver in PISO mode

Reading transportProperties

Reading field p

Reading field U

Reading/calculating face flux field phi


Starting time loop

Time = 0.000166

Courant Number mean: 8.14055e-18 max: 3.11001e-14
[INFO] MatrixAssemblyU: 482.997 [ms]
DILUPBiCGStab:  Solving for Ux, Initial residual = 1, Final residual = 0.0163135, No Iterations 5
DILUPBiCGStab:  Solving for Uy:  solution singularity
DILUPBiCGStab:  Solving for Uz:  solution singularity
[INFO] MomentumPredictor: 1761.28 [ms]
[INFO] MatrixAssemblyPI: 515.192 [ms]
[INFO] AdjustPhi: 23.803 [ms]
[INFO] ConstrainPressure: 0.006 [ms]
[INFO] MatrixAssemblyPII: 145.66 [ms]
[OGL LOG][lduLduBase.H:122] Initialising OGL
	OGL commit:  b92e557
	Branch: cyclic 
	Build type: Release
	Ginkgo version: 1.5.0 ( develop)
	Ginkgo commit: 4292ffdee
	MPI is GPU aware: 1
	Forces host buffer based communication: 1
	CPU ranks per GPU: 1
	Matrix format: Coo
	End OGL_INFO
[OGL LOG][Proc: 0]: global_index_init: 25.724 [ms]
[OGL LOG][Proc: 0]p_local_cols: call_init: 0.035 [ms]
[OGL LOG][Proc: 0]p_local_rows: call_init: 0.007 [ms]
[OGL LOG][Proc: 0]p_local_ldu_map: call_init: 0.008 [ms]
[OGL LOG][Proc: 0]p_local_coeffs: call_init: 0.008 [ms]
[OGL LOG][Proc: 0]p_non_local_cols: call_init: 0.003 [ms]
[OGL LOG][Proc: 0]p_non_local_rows: call_init: 0.002 [ms]
[OGL LOG][Proc: 0]p_non_local_ldu_map: call_init: 0.003 [ms]
[OGL LOG][Proc: 0]p_non_local_coeffs: call_init: 0.002 [ms]
[OGL LOG][Proc: 0]p: init_local_sparsity_pattern: 289.583 [ms]
[OGL LOG][Proc: 0]p: init_non_local_sparsity_pattern: 62.212 [ms]
[OGL LOG][Proc: 0]p: update_local_matrix_data: 74.976 [ms]
[OGL LOG][Proc: 0]p: update_non_local_matrix_data: 0.23 [ms]
[OGL LOG][Proc: 0]device_partition: call_init: 13.175 [ms]
[OGL LOG][Proc: 0]p_matrix: call_init: 291.146 [ms]
[OGL LOG][Proc: 0]p_rhs: call_init: 45.064 [ms]
[OGL LOG][Proc: 0]p_solution: call_init: 3.421 [ms]
[OGL LOG][Proc: 0]p: init_precond: 0.081 [ms]
[OGL LOG][StoppingCriterion.H:372] Creating stopping criterion with minIter 0 frequency 1
[OGL LOG][Proc: 0]p: generate_solver: 0.029 [ms]
[OGL LOG][Proc: 0]p: solve: 6971.41 [ms]
[OGL LOG][Proc: 0]p: copy_x_back: 9.321 [ms]
[OGL LOG][lduLduBase.H:339] 
Statistics:
	Time per iteration: 2868 [mu s]
	Time per residual norm calculation: 1719.000000 [mu s]
	Time per iteration and DOF: 0.106222 [ns]
	Retrieve results bandwidth 1.448000 [GByte/s]
[OGL LOG][Proc: 0]p: solve_multi_gpu: 7334.76 [ms]
nonehipGKOCG:  Solving for p, Initial residual = 1, Final residual = 9.97934e-05, No Iterations 2430
[INFO] SolveP: 8337.25 [ms]
time step continuity errors : sum local = 4.03247e-09, global = 2.5485e-21, cumulative = 2.5485e-21
[INFO] ContinuityError: 55.924 [ms]
[INFO] CorrectBoundary: 2.11 [ms]
[INFO] PISOStep: 9259.41 [ms]
[INFO] MatrixAssemblyPI: 486.144 [ms]
[INFO] AdjustPhi: 26.683 [ms]
[INFO] ConstrainPressure: 0.005 [ms]
[INFO] MatrixAssemblyPII: 142.349 [ms]
[OGL LOG][Proc: 0]: global_index_init: 0.022 [ms]
[OGL LOG][Proc: 0]p_local_coeffs: call_update: 0.002 [ms]
[OGL LOG][Proc: 0]p_non_local_coeffs: call_update: 0 [ms]
[OGL LOG][Proc: 0]p: update_local_matrix_data: 78.923 [ms]
[OGL LOG][Proc: 0]p: update_non_local_matrix_data: 0.258 [ms]
[OGL LOG][Proc: 0]p_matrix: call_update: 18.488 [ms]
[OGL LOG][Proc: 0]p_rhs: call_update: 12.712 [ms]
[OGL LOG][Proc: 0]p: init_precond: 0.043 [ms]
[OGL LOG][StoppingCriterion.H:372] Creating stopping criterion with minIter 1458 frequency 31
[OGL LOG][Proc: 0]p: generate_solver: 0.002 [ms]
[OGL LOG][Proc: 0]p: solve: 6057.65 [ms]
[OGL LOG][Proc: 0]p: copy_x_back: 7.688 [ms]
[OGL LOG][lduLduBase.H:339] 
Statistics:
	Time per iteration: 2504 [mu s]
	Time per residual norm calculation: 335.000000 [mu s]
	Time per iteration and DOF: 0.092741 [ns]
	Retrieve results bandwidth 1.755000 [GByte/s]
[OGL LOG][Proc: 0]p: solve_multi_gpu: 6097.31 [ms]
nonehipGKOCG:  Solving for p, Initial residual = 0.80945, Final residual = 9.57436e-05, No Iterations 2419
[INFO] SolveP: 6194.98 [ms]
time step continuity errors : sum local = 4.72244e-09, global = 7.61137e-22, cumulative = 3.30963e-21
[INFO] ContinuityError: 66.566 [ms]
[INFO] CorrectBoundary: 8.401 [ms]
[INFO] PISOStep: 7095.33 [ms]
[INFO] TimeStep: 18659.6 [ms]
ExecutionTime = 19.87 s  ClockTime = 21 s

Time = 0.000332

Courant Number mean: 0.0128238 max: 0.426584
[INFO] MatrixAssemblyU: 452.197 [ms]
DILUPBiCGStab:  Solving for Ux, Initial residual = 0.116949, Final residual = 0.00979522, No Iterations 5
DILUPBiCGStab:  Solving for Uy, Initial residual = 0.460127, Final residual = 0.0314341, No Iterations 5
DILUPBiCGStab:  Solving for Uz, Initial residual = 0.988822, Final residual = 0.0739798, No Iterations 5
[INFO] MomentumPredictor: 3308.28 [ms]
[INFO] MatrixAssemblyPI: 489.661 [ms]
[INFO] AdjustPhi: 24.739 [ms]
[INFO] ConstrainPressure: 0.003 [ms]
[INFO] MatrixAssemblyPII: 141.671 [ms]
[OGL LOG][Proc: 0]: global_index_init: 0.076 [ms]
[OGL LOG][Proc: 0]p_local_coeffs: call_update: 0 [ms]
[OGL LOG][Proc: 0]p_non_local_coeffs: call_update: 0 [ms]
[OGL LOG][Proc: 0]p: update_local_matrix_data: 79.15 [ms]
[OGL LOG][Proc: 0]p: update_non_local_matrix_data: 0.23 [ms]
[OGL LOG][Proc: 0]p_matrix: call_update: 20.817 [ms]
[OGL LOG][Proc: 0]p_rhs: call_update: 11.539 [ms]
[OGL LOG][Proc: 0]p: init_precond: 0.029 [ms]
[OGL LOG][StoppingCriterion.H:372] Creating stopping criterion with minIter 1451 frequency 11
[OGL LOG][Proc: 0]p: generate_solver: 0.002 [ms]
[OGL LOG][Proc: 0]p: solve: 5992.36 [ms]
[OGL LOG][Proc: 0]p: copy_x_back: 6.058 [ms]
[OGL LOG][lduLduBase.H:339] 
Statistics:
	Time per iteration: 2509 [mu s]
	Time per residual norm calculation: 341.000000 [mu s]
	Time per iteration and DOF: 0.092926 [ns]
	Retrieve results bandwidth 2.228000 [GByte/s]
[OGL LOG][Proc: 0]p: solve_multi_gpu: 6031.53 [ms]
nonehipGKOCG:  Solving for p, Initial residual = 0.879094, Final residual = 7.77817e-05, No Iterations 2388
[INFO] SolveP: 6131.27 [ms]
time step continuity errors : sum local = 7.43698e-09, global = 1.70937e-21, cumulative = 5.019e-21
[INFO] ContinuityError: 49.088 [ms]
[INFO] CorrectBoundary: 5.014 [ms]
[INFO] PISOStep: 7010.03 [ms]
[INFO] MatrixAssemblyPI: 479.017 [ms]
[INFO] AdjustPhi: 29.999 [ms]
[INFO] ConstrainPressure: 0.005 [ms]
[INFO] MatrixAssemblyPII: 138.827 [ms]
[OGL LOG][Proc: 0]: global_index_init: 0.062 [ms]
[OGL LOG][Proc: 0]p_local_coeffs: call_update: 0 [ms]
[OGL LOG][Proc: 0]p_non_local_coeffs: call_update: 0 [ms]
[OGL LOG][Proc: 0]p: update_local_matrix_data: 78.758 [ms]
[OGL LOG][Proc: 0]p: update_non_local_matrix_data: 0.219 [ms]
[OGL LOG][Proc: 0]p_matrix: call_update: 19.483 [ms]
[OGL LOG][Proc: 0]p_rhs: call_update: 10.869 [ms]
[OGL LOG][Proc: 0]p: init_precond: 0.03 [ms]
[OGL LOG][StoppingCriterion.H:372] Creating stopping criterion with minIter 1432 frequency 11
[OGL LOG][Proc: 0]p: generate_solver: 0.002 [ms]
[OGL LOG][Proc: 0]p: solve: 6023.55 [ms]
[OGL LOG][Proc: 0]p: copy_x_back: 6.936 [ms]
[OGL LOG][lduLduBase.H:339] 
Statistics:
	Time per iteration: 2534 [mu s]
	Time per residual norm calculation: 329.000000 [mu s]
	Time per iteration and DOF: 0.093852 [ns]
	Retrieve results bandwidth 1.946000 [GByte/s]
[OGL LOG][Proc: 0]p: solve_multi_gpu: 6061.71 [ms]
nonehipGKOCG:  Solving for p, Initial residual = 0.827177, Final residual = 9.94264e-05, No Iterations 2377
[INFO] SolveP: 6159.34 [ms]
time step continuity errors : sum local = 9.68198e-09, global = 7.18386e-22, cumulative = 5.73739e-21
[INFO] ContinuityError: 56.709 [ms]
[INFO] CorrectBoundary: 1.861 [ms]
[INFO] PISOStep: 7037.39 [ms]
[INFO] TimeStep: 17869.2 [ms]
ExecutionTime = 37.57 s  ClockTime = 38 s

Time = 0.000498

Courant Number mean: 0.0197919 max: 0.49188
[INFO] MatrixAssemblyU: 432.209 [ms]
DILUPBiCGStab:  Solving for Ux, Initial residual = 0.0544438, Final residual = 0.00365185, No Iterations 5
DILUPBiCGStab:  Solving for Uy, Initial residual = 0.226344, Final residual = 0.0163738, No Iterations 5
DILUPBiCGStab:  Solving for Uz, Initial residual = 0.850516, Final residual = 0.0546872, No Iterations 5
[INFO] MomentumPredictor: 3320.81 [ms]
[INFO] MatrixAssemblyPI: 487.25 [ms]
[INFO] AdjustPhi: 26.097 [ms]
[INFO] ConstrainPressure: 0.003 [ms]
[INFO] MatrixAssemblyPII: 140.513 [ms]
[OGL LOG][Proc: 0]: global_index_init: 0.075 [ms]
[OGL LOG][Proc: 0]p_local_coeffs: call_update: 0 [ms]
[OGL LOG][Proc: 0]p_non_local_coeffs: call_update: 0 [ms]
[OGL LOG][Proc: 0]p: update_local_matrix_data: 78.816 [ms]
[OGL LOG][Proc: 0]p: update_non_local_matrix_data: 0.529 [ms]
[OGL LOG][Proc: 0]p_matrix: call_update: 17.054 [ms]
[OGL LOG][Proc: 0]p_rhs: call_update: 10.394 [ms]
[OGL LOG][Proc: 0]p: init_precond: 0.041 [ms]
[OGL LOG][StoppingCriterion.H:372] Creating stopping criterion with minIter 1426 frequency 11
[OGL LOG][Proc: 0]p: generate_solver: 0.002 [ms]
[OGL LOG][Proc: 0]p: solve: 3553.02 [ms]
[OGL LOG][Proc: 0]p: copy_x_back: 7.139 [ms]
[OGL LOG][lduLduBase.H:339] 
Statistics:
	Time per iteration: 2482 [mu s]
	Time per residual norm calculation: 361.000000 [mu s]
	Time per iteration and DOF: 0.091926 [ns]
	Retrieve results bandwidth 1.891000 [GByte/s]
[OGL LOG][Proc: 0]p: solve_multi_gpu: 3588.49 [ms]
nonehipGKOCG:  Solving for p, Initial residual = 0.914221, Final residual = 7.01546e-05, No Iterations 1431
[INFO] SolveP: 3684.03 [ms]
time step continuity errors : sum local = 7.835e-09, global = 1.59968e-22, cumulative = 5.89736e-21
[INFO] ContinuityError: 64.378 [ms]
[INFO] CorrectBoundary: 0.932 [ms]
[INFO] PISOStep: 4559.39 [ms]
[INFO] MatrixAssemblyPI: 474.595 [ms]
[INFO] AdjustPhi: 24.339 [ms]
[INFO] ConstrainPressure: 0.004 [ms]
[INFO] MatrixAssemblyPII: 140.263 [ms]
[OGL LOG][Proc: 0]: global_index_init: 0.101 [ms]
[OGL LOG][Proc: 0]p_local_coeffs: call_update: 0 [ms]
[OGL LOG][Proc: 0]p_non_local_coeffs: call_update: 0 [ms]
[OGL LOG][Proc: 0]p: update_local_matrix_data: 79.529 [ms]
[OGL LOG][Proc: 0]p: update_non_local_matrix_data: 0.208 [ms]
[OGL LOG][Proc: 0]p_matrix: call_update: 20.198 [ms]
[OGL LOG][Proc: 0]p_rhs: call_update: 10.724 [ms]
[OGL LOG][Proc: 0]p: init_precond: 0.032 [ms]
[OGL LOG][StoppingCriterion.H:372] Creating stopping criterion with minIter 858 frequency 9
[OGL LOG][Proc: 0]p: generate_solver: 0.002 [ms]
[OGL LOG][Proc: 0]p: solve: 2973.38 [ms]
[OGL LOG][Proc: 0]p: copy_x_back: 5.437 [ms]
[OGL LOG][lduLduBase.H:339] 
Statistics:
	Time per iteration: 2578 [mu s]
	Time per residual norm calculation: 346.000000 [mu s]
	Time per iteration and DOF: 0.095481 [ns]
	Retrieve results bandwidth 2.482000 [GByte/s]
[OGL LOG][Proc: 0]p: solve_multi_gpu: 3010.4 [ms]
nonehipGKOCG:  Solving for p, Initial residual = 0.882793, Final residual = 9.56117e-05, No Iterations 1153
[INFO] SolveP: 3106.81 [ms]
time step continuity errors : sum local = 1.00286e-08, global = 2.04453e-22, cumulative = 6.10181e-21
[INFO] ContinuityError: 53.861 [ms]
[INFO] CorrectBoundary: 2.968 [ms]
[INFO] PISOStep: 3969.37 [ms]
[INFO] TimeStep: 12343.7 [ms]
ExecutionTime = 49.77 s  ClockTime = 51 s

Time = 0.000664

Courant Number mean: 0.0238776 max: 0.471995
[INFO] MatrixAssemblyU: 417.297 [ms]
DILUPBiCGStab:  Solving for Ux, Initial residual = 0.0385208, Final residual = 0.00293224, No Iterations 5
DILUPBiCGStab:  Solving for Uy, Initial residual = 0.174015, Final residual = 0.0133285, No Iterations 5
DILUPBiCGStab:  Solving for Uz, Initial residual = 0.735169, Final residual = 0.0386964, No Iterations 5
[INFO] MomentumPredictor: 3355.53 [ms]
[INFO] MatrixAssemblyPI: 494.533 [ms]
[INFO] AdjustPhi: 31.49 [ms]
[INFO] ConstrainPressure: 0.003 [ms]
[INFO] MatrixAssemblyPII: 136.354 [ms]
[OGL LOG][Proc: 0]: global_index_init: 0.128 [ms]
[OGL LOG][Proc: 0]p_local_coeffs: call_update: 0 [ms]
[OGL LOG][Proc: 0]p_non_local_coeffs: call_update: 0 [ms]
[OGL LOG][Proc: 0]p: update_local_matrix_data: 79.801 [ms]
[OGL LOG][Proc: 0]p: update_non_local_matrix_data: 0.644 [ms]
[OGL LOG][Proc: 0]p_matrix: call_update: 17.189 [ms]
[OGL LOG][Proc: 0]p_rhs: call_update: 10.158 [ms]
[OGL LOG][Proc: 0]p: init_precond: 0.033 [ms]
[OGL LOG][StoppingCriterion.H:372] Creating stopping criterion with minIter 691 frequency 8
[OGL LOG][Proc: 0]p: generate_solver: 0.001 [ms]
[OGL LOG][Proc: 0]p: solve: 2984.35 [ms]
[OGL LOG][Proc: 0]p: copy_x_back: 7.031 [ms]
[OGL LOG][lduLduBase.H:339] 
Statistics:
	Time per iteration: 2570 [mu s]
	Time per residual norm calculation: 329.000000 [mu s]
	Time per iteration and DOF: 0.095185 [ns]
	Retrieve results bandwidth 1.920000 [GByte/s]
[OGL LOG][Proc: 0]p: solve_multi_gpu: 3019.46 [ms]
nonehipGKOCG:  Solving for p, Initial residual = 0.891169, Final residual = 9.4799e-05, No Iterations 1161
[INFO] SolveP: 3118.73 [ms]
time step continuity errors : sum local = 1.14122e-08, global = 1.27096e-21, cumulative = 7.37277e-21
[INFO] ContinuityError: 53.505 [ms]
[INFO] CorrectBoundary: 1.137 [ms]
[INFO] PISOStep: 4006.16 [ms]
[INFO] MatrixAssemblyPI: 475.644 [ms]
[INFO] AdjustPhi: 28.323 [ms]
[INFO] ConstrainPressure: 0.004 [ms]
[INFO] MatrixAssemblyPII: 139.593 [ms]
[OGL LOG][Proc: 0]: global_index_init: 0.013 [ms]
[OGL LOG][Proc: 0]p_local_coeffs: call_update: 0 [ms]
[OGL LOG][Proc: 0]p_non_local_coeffs: call_update: 0 [ms]
[OGL LOG][Proc: 0]p: update_local_matrix_data: 80.733 [ms]
[OGL LOG][Proc: 0]p: update_non_local_matrix_data: 0.263 [ms]
[OGL LOG][Proc: 0]p_matrix: call_update: 14.301 [ms]
[OGL LOG][Proc: 0]p_rhs: call_update: 12.692 [ms]
[OGL LOG][Proc: 0]p: init_precond: 0.032 [ms]
[OGL LOG][StoppingCriterion.H:372] Creating stopping criterion with minIter 696 frequency 8
[OGL LOG][Proc: 0]p: generate_solver: 0.002 [ms]
[OGL LOG][Proc: 0]p: solve: 2956.1 [ms]
[OGL LOG][Proc: 0]p: copy_x_back: 6.556 [ms]
[OGL LOG][lduLduBase.H:339] 
Statistics:
	Time per iteration: 2563 [mu s]
	Time per residual norm calculation: 317.000000 [mu s]
	Time per iteration and DOF: 0.094926 [ns]
	Retrieve results bandwidth 2.059000 [GByte/s]
[OGL LOG][Proc: 0]p: solve_multi_gpu: 2990.47 [ms]
nonehipGKOCG:  Solving for p, Initial residual = 0.830995, Final residual = 8.56068e-05, No Iterations 1153
[INFO] SolveP: 3087.3 [ms]
time step continuity errors : sum local = 9.99659e-09, global = -4.86449e-22, cumulative = 6.88632e-21
[INFO] ContinuityError: 51.475 [ms]
[INFO] CorrectBoundary: 0.766 [ms]
[INFO] PISOStep: 3952.74 [ms]
[INFO] TimeStep: 11802.6 [ms]
ExecutionTime = 61.45 s  ClockTime = 63 s

Time = 0.00083

Courant Number mean: 0.027392 max: 0.505184
[INFO] MatrixAssemblyU: 443.527 [ms]
DILUPBiCGStab:  Solving for Ux, Initial residual = 0.0324286, Final residual = 0.00250836, No Iterations 5
DILUPBiCGStab:  Solving for Uy, Initial residual = 0.12983, Final residual = 0.0113455, No Iterations 5
DILUPBiCGStab:  Solving for Uz, Initial residual = 0.685585, Final residual = 0.0343746, No Iterations 5
[INFO] MomentumPredictor: 3303.83 [ms]
[INFO] MatrixAssemblyPI: 495.988 [ms]
[INFO] AdjustPhi: 24.374 [ms]
[INFO] ConstrainPressure: 0.003 [ms]
[INFO] MatrixAssemblyPII: 140.46 [ms]
[OGL LOG][Proc: 0]: global_index_init: 0.151 [ms]
[OGL LOG][Proc: 0]p_local_coeffs: call_update: 0 [ms]
[OGL LOG][Proc: 0]p_non_local_coeffs: call_update: 0 [ms]
[OGL LOG][Proc: 0]p: update_local_matrix_data: 83.019 [ms]
[OGL LOG][Proc: 0]p: update_non_local_matrix_data: 0.372 [ms]
[OGL LOG][Proc: 0]p_matrix: call_update: 15.559 [ms]
[OGL LOG][Proc: 0]p_rhs: call_update: 9.945 [ms]
[OGL LOG][Proc: 0]p: init_precond: 0.037 [ms]
[OGL LOG][StoppingCriterion.H:372] Creating stopping criterion with minIter 691 frequency 7
[OGL LOG][Proc: 0]p: generate_solver: 0.002 [ms]
[OGL LOG][Proc: 0]p: solve: 6127.51 [ms]
[OGL LOG][Proc: 0]p: copy_x_back: 6.986 [ms]
[OGL LOG][lduLduBase.H:339] 
Statistics:
	Time per iteration: 2573 [mu s]
	Time per residual norm calculation: 341.000000 [mu s]
	Time per iteration and DOF: 0.095296 [ns]
	Retrieve results bandwidth 1.932000 [GByte/s]
[OGL LOG][Proc: 0]p: solve_multi_gpu: 6160.73 [ms]
nonehipGKOCG:  Solving for p, Initial residual = 0.911487, Final residual = 8.84858e-05, No Iterations 2381
[INFO] SolveP: 6262.18 [ms]
time step continuity errors : sum local = 9.84643e-09, global = 5.53337e-22, cumulative = 7.43966e-21
[INFO] ContinuityError: 57.434 [ms]
[INFO] CorrectBoundary: 1.705 [ms]
[INFO] PISOStep: 7149.82 [ms]
[INFO] MatrixAssemblyPI: 478.069 [ms]
[INFO] AdjustPhi: 29.274 [ms]
[INFO] ConstrainPressure: 0.004 [ms]
[INFO] MatrixAssemblyPII: 139.973 [ms]
[OGL LOG][Proc: 0]: global_index_init: 0.013 [ms]
[OGL LOG][Proc: 0]p_local_coeffs: call_update: 0 [ms]
[OGL LOG][Proc: 0]p_non_local_coeffs: call_update: 0 [ms]
[OGL LOG][Proc: 0]p: update_local_matrix_data: 80.065 [ms]
[OGL LOG][Proc: 0]p: update_non_local_matrix_data: 0.336 [ms]
[OGL LOG][Proc: 0]p_matrix: call_update: 12.793 [ms]
[OGL LOG][Proc: 0]p_rhs: call_update: 16.625 [ms]
[OGL LOG][Proc: 0]p: init_precond: 0.028 [ms]
[OGL LOG][StoppingCriterion.H:372] Creating stopping criterion with minIter 1428 frequency 11
[OGL LOG][Proc: 0]p: generate_solver: 0.002 [ms]
[OGL LOG][Proc: 0]p: solve: 6043.68 [ms]
[OGL LOG][Proc: 0]p: copy_x_back: 7.508 [ms]
[OGL LOG][lduLduBase.H:339] 
Statistics:
	Time per iteration: 2542 [mu s]
	Time per residual norm calculation: 319.000000 [mu s]
	Time per iteration and DOF: 0.094148 [ns]
	Retrieve results bandwidth 1.798000 [GByte/s]
[OGL LOG][Proc: 0]p: solve_multi_gpu: 6081.39 [ms]
nonehipGKOCG:  Solving for p, Initial residual = 0.873381, Final residual = 9.53297e-05, No Iterations 2377
[INFO] SolveP: 6180.34 [ms]
time step continuity errors : sum local = 1.04729e-08, global = 2.11965e-22, cumulative = 7.65162e-21
[INFO] ContinuityError: 49.293 [ms]
[INFO] CorrectBoundary: 0.914 [ms]
[INFO] PISOStep: 7049.66 [ms]
[INFO] TimeStep: 18000.4 [ms]
ExecutionTime = 79.3 s  ClockTime = 81 s

Time = 0.000996

Courant Number mean: 0.0301232 max: 0.478357
[INFO] MatrixAssemblyU: 411.592 [ms]
DILUPBiCGStab:  Solving for Ux, Initial residual = 0.0271219, Final residual = 0.00227258, No Iterations 5
DILUPBiCGStab:  Solving for Uy, Initial residual = 0.112074, Final residual = 0.0090736, No Iterations 5
DILUPBiCGStab:  Solving for Uz, Initial residual = 0.589058, Final residual = 0.0271281, No Iterations 5
[INFO] MomentumPredictor: 3349.11 [ms]
[INFO] MatrixAssemblyPI: 497.537 [ms]
[INFO] AdjustPhi: 37.902 [ms]
[INFO] ConstrainPressure: 0.003 [ms]
[INFO] MatrixAssemblyPII: 140.811 [ms]
[OGL LOG][Proc: 0]: global_index_init: 0.085 [ms]
[OGL LOG][Proc: 0]p_local_coeffs: call_update: 0 [ms]
[OGL LOG][Proc: 0]p_non_local_coeffs: call_update: 0 [ms]
[OGL LOG][Proc: 0]p: update_local_matrix_data: 84.234 [ms]
[OGL LOG][Proc: 0]p: update_non_local_matrix_data: 0.908 [ms]
[OGL LOG][Proc: 0]p_matrix: call_update: 13.658 [ms]
[OGL LOG][Proc: 0]p_rhs: call_update: 21.48 [ms]
[OGL LOG][Proc: 0]p: init_precond: 0.037 [ms]
[OGL LOG][StoppingCriterion.H:372] Creating stopping criterion with minIter 1426 frequency 11
[OGL LOG][Proc: 0]p: generate_solver: 0.002 [ms]
[OGL LOG][Proc: 0]p: solve: 5862.56 [ms]
[OGL LOG][Proc: 0]p: copy_x_back: 5.963 [ms]
[OGL LOG][lduLduBase.H:339] 
Statistics:
	Time per iteration: 2466 [mu s]
	Time per residual norm calculation: 330.000000 [mu s]
	Time per iteration and DOF: 0.091333 [ns]
	Retrieve results bandwidth 2.263000 [GByte/s]
[OGL LOG][Proc: 0]p: solve_multi_gpu: 5904.46 [ms]
nonehipGKOCG:  Solving for p, Initial residual = 0.889381, Final residual = 8.95096e-05, No Iterations 2377
[INFO] SolveP: 6006.47 [ms]
time step continuity errors : sum local = 1.01853e-08, global = 1.36418e-21, cumulative = 9.01581e-21
[INFO] ContinuityError: 57.499 [ms]
[INFO] CorrectBoundary: 2.027 [ms]
[INFO] PISOStep: 6914.74 [ms]
[INFO] MatrixAssemblyPI: 476.142 [ms]
[INFO] AdjustPhi: 30.35 [ms]
[INFO] ConstrainPressure: 0.005 [ms]
[INFO] MatrixAssemblyPII: 140.363 [ms]
[OGL LOG][Proc: 0]: global_index_init: 0.022 [ms]
[OGL LOG][Proc: 0]p_local_coeffs: call_update: 0 [ms]
[OGL LOG][Proc: 0]p_non_local_coeffs: call_update: 0 [ms]
[OGL LOG][Proc: 0]p: update_local_matrix_data: 78.496 [ms]
[OGL LOG][Proc: 0]p: update_non_local_matrix_data: 0.289 [ms]
[OGL LOG][Proc: 0]p_matrix: call_update: 16.708 [ms]
[OGL LOG][Proc: 0]p_rhs: call_update: 15.306 [ms]
[OGL LOG][Proc: 0]p: init_precond: 0.024 [ms]
[OGL LOG][StoppingCriterion.H:372] Creating stopping criterion with minIter 1426 frequency 11
[OGL LOG][Proc: 0]p: generate_solver: 0.001 [ms]
[OGL LOG][Proc: 0]p: solve: 5941.33 [ms]
[OGL LOG][Proc: 0]p: copy_x_back: 7.549 [ms]
[OGL LOG][lduLduBase.H:339] 
Statistics:
	Time per iteration: 2499 [mu s]
	Time per residual norm calculation: 354.000000 [mu s]
	Time per iteration and DOF: 0.092556 [ns]
	Retrieve results bandwidth 1.788000 [GByte/s]
[OGL LOG][Proc: 0]p: solve_multi_gpu: 5981.88 [ms]
nonehipGKOCG:  Solving for p, Initial residual = 0.826272, Final residual = 8.40401e-05, No Iterations 2377
[INFO] SolveP: 6078 [ms]
time step continuity errors : sum local = 9.70654e-09, global = 2.33406e-22, cumulative = 9.24921e-21
[INFO] ContinuityError: 62.674 [ms]
[INFO] CorrectBoundary: 2.659 [ms]
[INFO] PISOStep: 6952.31 [ms]
[INFO] TimeStep: 17689.2 [ms]
ExecutionTime = 96.85 s  ClockTime = 98 s

Time = 0.001162

Courant Number mean: 0.0325867 max: 0.512236
[INFO] MatrixAssemblyU: 445.726 [ms]
DILUPBiCGStab:  Solving for Ux, Initial residual = 0.0246055, Final residual = 0.00211871, No Iterations 5
DILUPBiCGStab:  Solving for Uy, Initial residual = 0.0986038, Final residual = 0.00833201, No Iterations 5
DILUPBiCGStab:  Solving for Uz, Initial residual = 0.562071, Final residual = 0.0239434, No Iterations 5
[INFO] MomentumPredictor: 3315.5 [ms]
[INFO] MatrixAssemblyPI: 497.579 [ms]
[INFO] AdjustPhi: 25.029 [ms]
[INFO] ConstrainPressure: 0.004 [ms]
[INFO] MatrixAssemblyPII: 140.335 [ms]
[OGL LOG][Proc: 0]: global_index_init: 0.077 [ms]
[OGL LOG][Proc: 0]p_local_coeffs: call_update: 0 [ms]
[OGL LOG][Proc: 0]p_non_local_coeffs: call_update: 0 [ms]
[OGL LOG][Proc: 0]p: update_local_matrix_data: 84.225 [ms]
[OGL LOG][Proc: 0]p: update_non_local_matrix_data: 0.568 [ms]
[OGL LOG][Proc: 0]p_matrix: call_update: 14.125 [ms]
[OGL LOG][Proc: 0]p_rhs: call_update: 12.393 [ms]
[OGL LOG][Proc: 0]p: init_precond: 0.037 [ms]
[OGL LOG][StoppingCriterion.H:372] Creating stopping criterion with minIter 1426 frequency 11
[OGL LOG][Proc: 0]p: generate_solver: 0.002 [ms]
[OGL LOG][Proc: 0]p: solve: 5371.87 [ms]
[OGL LOG][Proc: 0]p: copy_x_back: 5.845 [ms]
[OGL LOG][lduLduBase.H:339] 
Statistics:
	Time per iteration: 2452 [mu s]
	Time per residual norm calculation: 357.000000 [mu s]
	Time per iteration and DOF: 0.090815 [ns]
	Retrieve results bandwidth 2.309000 [GByte/s]
[OGL LOG][Proc: 0]p: solve_multi_gpu: 5404.97 [ms]
nonehipGKOCG:  Solving for p, Initial residual = 0.907346, Final residual = 9.38926e-05, No Iterations 2190
[INFO] SolveP: 5505.8 [ms]
time step continuity errors : sum local = 1.0437e-08, global = -1.06595e-21, cumulative = 8.18326e-21
[INFO] ContinuityError: 56.428 [ms]
[INFO] CorrectBoundary: 0.949 [ms]
[INFO] PISOStep: 6392.31 [ms]
[INFO] MatrixAssemblyPI: 475.436 [ms]
[INFO] AdjustPhi: 28.602 [ms]
[INFO] ConstrainPressure: 0.004 [ms]
[INFO] MatrixAssemblyPII: 140.239 [ms]
[OGL LOG][Proc: 0]: global_index_init: 0.081 [ms]
[OGL LOG][Proc: 0]p_local_coeffs: call_update: 0 [ms]
[OGL LOG][Proc: 0]p_non_local_coeffs: call_update: 0 [ms]
[OGL LOG][Proc: 0]p: update_local_matrix_data: 78.853 [ms]
[OGL LOG][Proc: 0]p: update_non_local_matrix_data: 0.201 [ms]
[OGL LOG][Proc: 0]p_matrix: call_update: 18.444 [ms]
[OGL LOG][Proc: 0]p_rhs: call_update: 8.693 [ms]
[OGL LOG][Proc: 0]p: init_precond: 0.044 [ms]
[OGL LOG][StoppingCriterion.H:372] Creating stopping criterion with minIter 1314 frequency 12
[OGL LOG][Proc: 0]p: generate_solver: 0.002 [ms]
[OGL LOG][Proc: 0]p: solve: 5767.17 [ms]
[OGL LOG][Proc: 0]p: copy_x_back: 6.616 [ms]
[OGL LOG][lduLduBase.H:339] 
Statistics:
	Time per iteration: 2515 [mu s]
	Time per residual norm calculation: 315.000000 [mu s]
	Time per iteration and DOF: 0.093148 [ns]
	Retrieve results bandwidth 2.040000 [GByte/s]
[OGL LOG][Proc: 0]p: solve_multi_gpu: 5801.69 [ms]
nonehipGKOCG:  Solving for p, Initial residual = 0.862365, Final residual = 8.81301e-05, No Iterations 2293
[INFO] SolveP: 5896.97 [ms]
time step continuity errors : sum local = 9.68988e-09, global = 3.63516e-22, cumulative = 8.54678e-21
[INFO] ContinuityError: 56.299 [ms]
[INFO] CorrectBoundary: 0.775 [ms]
[INFO] PISOStep: 6771.31 [ms]
[INFO] TimeStep: 16980.9 [ms]
ExecutionTime = 113.71 s  ClockTime = 115 s

Time = 0.001328

Courant Number mean: 0.0346583 max: 0.48128
[INFO] MatrixAssemblyU: 417.911 [ms]
DILUPBiCGStab:  Solving for Ux, Initial residual = 0.0221939, Final residual = 0.00198914, No Iterations 5
DILUPBiCGStab:  Solving for Uy, Initial residual = 0.0873553, Final residual = 0.00700948, No Iterations 5
DILUPBiCGStab:  Solving for Uz, Initial residual = 0.521329, Final residual = 0.0222023, No Iterations 5
[INFO] MomentumPredictor: 3357.8 [ms]
[INFO] MatrixAssemblyPI: 495.602 [ms]
[INFO] AdjustPhi: 31.96 [ms]
[INFO] ConstrainPressure: 0.003 [ms]
[INFO] MatrixAssemblyPII: 140.708 [ms]
[OGL LOG][Proc: 0]: global_index_init: 0.09 [ms]
[OGL LOG][Proc: 0]p_local_coeffs: call_update: 0 [ms]
[OGL LOG][Proc: 0]p_non_local_coeffs: call_update: 0 [ms]
[OGL LOG][Proc: 0]p: update_local_matrix_data: 83.803 [ms]
[OGL LOG][Proc: 0]p: update_non_local_matrix_data: 0.233 [ms]
[OGL LOG][Proc: 0]p_matrix: call_update: 18.055 [ms]
[OGL LOG][Proc: 0]p_rhs: call_update: 6.294 [ms]
[OGL LOG][Proc: 0]p: init_precond: 0.054 [ms]
[OGL LOG][StoppingCriterion.H:372] Creating stopping criterion with minIter 1375 frequency 11
[OGL LOG][Proc: 0]p: generate_solver: 0.009 [ms]
[OGL LOG][Proc: 0]p: solve: 5701.87 [ms]
[OGL LOG][Proc: 0]p: copy_x_back: 6.481 [ms]
[OGL LOG][lduLduBase.H:339] 
Statistics:
	Time per iteration: 2467 [mu s]
	Time per residual norm calculation: 362.000000 [mu s]
	Time per iteration and DOF: 0.091370 [ns]
	Retrieve results bandwidth 2.083000 [GByte/s]
[OGL LOG][Proc: 0]p: solve_multi_gpu: 5733.64 [ms]
nonehipGKOCG:  Solving for p, Initial residual = 0.885803, Final residual = 9.37391e-05, No Iterations 2311
[INFO] SolveP: 5835.75 [ms]
time step continuity errors : sum local = 1.05949e-08, global = 1.22831e-21, cumulative = 9.77509e-21
[INFO] ContinuityError: 60.632 [ms]
[INFO] CorrectBoundary: 4.822 [ms]
[INFO] PISOStep: 6738.26 [ms]
[INFO] MatrixAssemblyPI: 475.695 [ms]
[INFO] AdjustPhi: 28.2 [ms]
[INFO] ConstrainPressure: 0.004 [ms]
[INFO] MatrixAssemblyPII: 140.256 [ms]
[OGL LOG][Proc: 0]: global_index_init: 0.013 [ms]
[OGL LOG][Proc: 0]p_local_coeffs: call_update: 0 [ms]
[OGL LOG][Proc: 0]p_non_local_coeffs: call_update: 0 [ms]
[OGL LOG][Proc: 0]p: update_local_matrix_data: 75.294 [ms]
[OGL LOG][Proc: 0]p: update_non_local_matrix_data: 0.459 [ms]
[OGL LOG][Proc: 0]p_matrix: call_update: 14.949 [ms]
[OGL LOG][Proc: 0]p_rhs: call_update: 18.206 [ms]
[OGL LOG][Proc: 0]p: init_precond: 0.025 [ms]
[OGL LOG][StoppingCriterion.H:372] Creating stopping criterion with minIter 1386 frequency 12
[OGL LOG][Proc: 0]p: generate_solver: 0.002 [ms]
[OGL LOG][Proc: 0]p: solve: 5834.75 [ms]
[OGL LOG][Proc: 0]p: copy_x_back: 7.012 [ms]
[OGL LOG][lduLduBase.H:339] 
Statistics:
	Time per iteration: 2531 [mu s]
	Time per residual norm calculation: 351.000000 [mu s]
	Time per iteration and DOF: 0.093741 [ns]
	Retrieve results bandwidth 1.925000 [GByte/s]
[OGL LOG][Proc: 0]p: solve_multi_gpu: 5875.9 [ms]
nonehipGKOCG:  Solving for p, Initial residual = 0.820073, Final residual = 9.0112e-05, No Iterations 2305
[INFO] SolveP: 5968.64 [ms]
time step continuity errors : sum local = 1.03235e-08, global = 7.362e-22, cumulative = 1.05113e-20
[INFO] ContinuityError: 53.58 [ms]
[INFO] CorrectBoundary: 0.686 [ms]
[INFO] PISOStep: 6831.87 [ms]
[INFO] TimeStep: 17413.5 [ms]
ExecutionTime = 130.96 s  ClockTime = 133 s

Time = 0.001494

Courant Number mean: 0.0365913 max: 0.518421
[INFO] MatrixAssemblyU: 443.858 [ms]
DILUPBiCGStab:  Solving for Ux, Initial residual = 0.0206219, Final residual = 0.00185739, No Iterations 5
DILUPBiCGStab:  Solving for Uy, Initial residual = 0.0822834, Final residual = 0.00660575, No Iterations 5
DILUPBiCGStab:  Solving for Uz, Initial residual = 0.515658, Final residual = 0.0204004, No Iterations 5
[INFO] MomentumPredictor: 3308.13 [ms]
[INFO] MatrixAssemblyPI: 498.644 [ms]
[INFO] AdjustPhi: 25.153 [ms]
[INFO] ConstrainPressure: 0.003 [ms]
[INFO] MatrixAssemblyPII: 140.44 [ms]
[OGL LOG][Proc: 0]: global_index_init: 0.039 [ms]
[OGL LOG][Proc: 0]p_local_coeffs: call_update: 0 [ms]
[OGL LOG][Proc: 0]p_non_local_coeffs: call_update: 0 [ms]
[OGL LOG][Proc: 0]p: update_local_matrix_data: 83.983 [ms]
[OGL LOG][Proc: 0]p: update_non_local_matrix_data: 0.542 [ms]
[OGL LOG][Proc: 0]p_matrix: call_update: 11.598 [ms]
[OGL LOG][Proc: 0]p_rhs: call_update: 12.022 [ms]
[OGL LOG][Proc: 0]p: init_precond: 0.035 [ms]
[OGL LOG][StoppingCriterion.H:372] Creating stopping criterion with minIter 1383 frequency 11
[OGL LOG][Proc: 0]p: generate_solver: 0.002 [ms]
[OGL LOG][Proc: 0]p: solve: 5263.04 [ms]
[OGL LOG][Proc: 0]p: copy_x_back: 6.691 [ms]
[OGL LOG][lduLduBase.H:339] 
Statistics:
	Time per iteration: 2516 [mu s]
	Time per residual norm calculation: 330.000000 [mu s]
	Time per iteration and DOF: 0.093185 [ns]
	Retrieve results bandwidth 2.017000 [GByte/s]
[OGL LOG][Proc: 0]p: solve_multi_gpu: 5294.34 [ms]
nonehipGKOCG:  Solving for p, Initial residual = 0.903267, Final residual = 9.79037e-05, No Iterations 2091
[INFO] SolveP: 5396.68 [ms]
time step continuity errors : sum local = 1.08412e-08, global = -5.09771e-23, cumulative = 1.04603e-20
[INFO] ContinuityError: 53.049 [ms]
[INFO] CorrectBoundary: 0.666 [ms]
[INFO] PISOStep: 6284.43 [ms]
[INFO] MatrixAssemblyPI: 475.948 [ms]
[INFO] AdjustPhi: 26.377 [ms]
[INFO] ConstrainPressure: 0.004 [ms]
[INFO] MatrixAssemblyPII: 140.685 [ms]
[OGL LOG][Proc: 0]: global_index_init: 0.012 [ms]
[OGL LOG][Proc: 0]p_local_coeffs: call_update: 0 [ms]
[OGL LOG][Proc: 0]p_non_local_coeffs: call_update: 0 [ms]
[OGL LOG][Proc: 0]p: update_local_matrix_data: 78.627 [ms]
[OGL LOG][Proc: 0]p: update_non_local_matrix_data: 0.31 [ms]
[OGL LOG][Proc: 0]p_matrix: call_update: 19.371 [ms]
[OGL LOG][Proc: 0]p_rhs: call_update: 10.681 [ms]
[OGL LOG][Proc: 0]p: init_precond: 0.049 [ms]
[OGL LOG][StoppingCriterion.H:372] Creating stopping criterion with minIter 1254 frequency 10
[OGL LOG][Proc: 0]p: generate_solver: 0.001 [ms]
[OGL LOG][Proc: 0]p: solve: 5249.64 [ms]
[OGL LOG][Proc: 0]p: copy_x_back: 6.161 [ms]
[OGL LOG][lduLduBase.H:339] 
Statistics:
	Time per iteration: 2522 [mu s]
	Time per residual norm calculation: 326.000000 [mu s]
	Time per iteration and DOF: 0.093407 [ns]
	Retrieve results bandwidth 2.191000 [GByte/s]
[OGL LOG][Proc: 0]p: solve_multi_gpu: 5286.97 [ms]
nonehipGKOCG:  Solving for p, Initial residual = 0.853746, Final residual = 9.98163e-05, No Iterations 2081
[INFO] SolveP: 5383.48 [ms]
time step continuity errors : sum local = 1.0946e-08, global = 5.69064e-22, cumulative = 1.10294e-20
[INFO] ContinuityError: 52.77 [ms]
[INFO] CorrectBoundary: 0.93 [ms]
[INFO] PISOStep: 6250.82 [ms]
[INFO] TimeStep: 16344.2 [ms]
ExecutionTime = 147.16 s  ClockTime = 149 s

Time = 0.00166

Courant Number mean: 0.0382731 max: 0.483673
[INFO] MatrixAssemblyU: 415.371 [ms]
DILUPBiCGStab:  Solving for Ux, Initial residual = 0.0194307, Final residual = 0.00177015, No Iterations 5
DILUPBiCGStab:  Solving for Uy, Initial residual = 0.0739338, Final residual = 0.00573337, No Iterations 5
DILUPBiCGStab:  Solving for Uz, Initial residual = 0.492287, Final residual = 0.0192803, No Iterations 5
[INFO] MomentumPredictor: 3348.27 [ms]
[INFO] MatrixAssemblyPI: 496.986 [ms]
[INFO] AdjustPhi: 31.195 [ms]
[INFO] ConstrainPressure: 0.004 [ms]
[INFO] MatrixAssemblyPII: 140.423 [ms]
[OGL LOG][Proc: 0]: global_index_init: 0.1 [ms]
[OGL LOG][Proc: 0]p_local_coeffs: call_update: 0 [ms]
[OGL LOG][Proc: 0]p_non_local_coeffs: call_update: 0 [ms]
[OGL LOG][Proc: 0]p: update_local_matrix_data: 81.505 [ms]
[OGL LOG][Proc: 0]p: update_non_local_matrix_data: 0.246 [ms]
[OGL LOG][Proc: 0]p_matrix: call_update: 13.438 [ms]
[OGL LOG][Proc: 0]p_rhs: call_update: 17.469 [ms]
[OGL LOG][Proc: 0]p: init_precond: 0.028 [ms]
[OGL LOG][StoppingCriterion.H:372] Creating stopping criterion with minIter 1248 frequency 10
[OGL LOG][Proc: 0]p: generate_solver: 0.002 [ms]
[OGL LOG][Proc: 0]p: solve: 5690.6 [ms]
[OGL LOG][Proc: 0]p: copy_x_back: 7.82 [ms]
[OGL LOG][lduLduBase.H:339] 
Statistics:
	Time per iteration: 2473 [mu s]
	Time per residual norm calculation: 332.000000 [mu s]
	Time per iteration and DOF: 0.091593 [ns]
	Retrieve results bandwidth 1.726000 [GByte/s]
[OGL LOG][Proc: 0]p: solve_multi_gpu: 5730.26 [ms]
nonehipGKOCG:  Solving for p, Initial residual = 0.884603, Final residual = 9.63977e-05, No Iterations 2301
[INFO] SolveP: 5828.36 [ms]
time step continuity errors : sum local = 1.10117e-08, global = -5.98255e-22, cumulative = 1.04311e-20
[INFO] ContinuityError: 61.491 [ms]
[INFO] CorrectBoundary: 3.16 [ms]
[INFO] PISOStep: 6730.88 [ms]
[INFO] MatrixAssemblyPI: 472.085 [ms]
[INFO] AdjustPhi: 29.675 [ms]
[INFO] ConstrainPressure: 0.004 [ms]
[INFO] MatrixAssemblyPII: 139.643 [ms]
[OGL LOG][Proc: 0]: global_index_init: 0.073 [ms]
[OGL LOG][Proc: 0]p_local_coeffs: call_update: 0 [ms]
[OGL LOG][Proc: 0]p_non_local_coeffs: call_update: 0 [ms]
[OGL LOG][Proc: 0]p: update_local_matrix_data: 76.121 [ms]
[OGL LOG][Proc: 0]p: update_non_local_matrix_data: 0.498 [ms]
[OGL LOG][Proc: 0]p_matrix: call_update: 21.344 [ms]
[OGL LOG][Proc: 0]p_rhs: call_update: 9.126 [ms]
[OGL LOG][Proc: 0]p: init_precond: 0.053 [ms]
[OGL LOG][StoppingCriterion.H:372] Creating stopping criterion with minIter 1380 frequency 11
[OGL LOG][Proc: 0]p: generate_solver: 0.001 [ms]
[OGL LOG][Proc: 0]p: solve: 5696.01 [ms]
[OGL LOG][Proc: 0]p: copy_x_back: 7.005 [ms]
[OGL LOG][lduLduBase.H:339] 
Statistics:
	Time per iteration: 2476 [mu s]
	Time per residual norm calculation: 341.000000 [mu s]
	Time per iteration and DOF: 0.091704 [ns]
	Retrieve results bandwidth 1.927000 [GByte/s]
[OGL LOG][Proc: 0]p: solve_multi_gpu: 5734.37 [ms]
nonehipGKOCG:  Solving for p, Initial residual = 0.815811, Final residual = 9.17864e-05, No Iterations 2300
[INFO] SolveP: 5827.43 [ms]
time step continuity errors : sum local = 1.0615e-08, global = 6.65712e-22, cumulative = 1.10968e-20
[INFO] ContinuityError: 55.201 [ms]
[INFO] CorrectBoundary: 3.308 [ms]
[INFO] PISOStep: 6698.37 [ms]
[INFO] TimeStep: 17260.2 [ms]
ExecutionTime = 164.28 s  ClockTime = 166 s

Time = 0.001826

Courant Number mean: 0.0398821 max: 0.525024
[INFO] MatrixAssemblyU: 443.603 [ms]
DILUPBiCGStab:  Solving for Ux, Initial residual = 0.0182456, Final residual = 0.00164757, No Iterations 5
DILUPBiCGStab:  Solving for Uy, Initial residual = 0.0723397, Final residual = 0.00551709, No Iterations 5
DILUPBiCGStab:  Solving for Uz, Initial residual = 0.49452, Final residual = 0.0183224, No Iterations 5
[INFO] MomentumPredictor: 3317.21 [ms]
[INFO] MatrixAssemblyPI: 494.509 [ms]
[INFO] AdjustPhi: 29.379 [ms]
[INFO] ConstrainPressure: 0.003 [ms]
[INFO] MatrixAssemblyPII: 138.309 [ms]
[OGL LOG][Proc: 0]: global_index_init: 0.094 [ms]
[OGL LOG][Proc: 0]p_local_coeffs: call_update: 0 [ms]
[OGL LOG][Proc: 0]p_non_local_coeffs: call_update: 0 [ms]
[OGL LOG][Proc: 0]p: update_local_matrix_data: 82.522 [ms]
[OGL LOG][Proc: 0]p: update_non_local_matrix_data: 0.695 [ms]
[OGL LOG][Proc: 0]p_matrix: call_update: 15.556 [ms]
[OGL LOG][Proc: 0]p_rhs: call_update: 7.508 [ms]
[OGL LOG][Proc: 0]p: init_precond: 0.103 [ms]
[OGL LOG][StoppingCriterion.H:372] Creating stopping criterion with minIter 1380 frequency 11
[OGL LOG][Proc: 0]p: generate_solver: 0.002 [ms]
[OGL LOG][Proc: 0]p: solve: 5640.64 [ms]
[OGL LOG][Proc: 0]p: copy_x_back: 5.643 [ms]
[OGL LOG][lduLduBase.H:339] 
Statistics:
	Time per iteration: 2452 [mu s]
	Time per residual norm calculation: 361.000000 [mu s]
	Time per iteration and DOF: 0.090815 [ns]
	Retrieve results bandwidth 2.392000 [GByte/s]
[OGL LOG][Proc: 0]p: solve_multi_gpu: 5670.23 [ms]
nonehipGKOCG:  Solving for p, Initial residual = 0.903418, Final residual = 8.83793e-05, No Iterations 2300
[INFO] SolveP: 5772.39 [ms]
time step continuity errors : sum local = 1.00457e-08, global = 1.26552e-21, cumulative = 1.23624e-20
[INFO] ContinuityError: 49.467 [ms]
[INFO] CorrectBoundary: 1.063 [ms]
[INFO] PISOStep: 6657.62 [ms]
[INFO] MatrixAssemblyPI: 475.168 [ms]
[INFO] AdjustPhi: 25.332 [ms]
[INFO] ConstrainPressure: 0.004 [ms]
[INFO] MatrixAssemblyPII: 139.959 [ms]
[OGL LOG][Proc: 0]: global_index_init: 0.072 [ms]
[OGL LOG][Proc: 0]p_local_coeffs: call_update: 0 [ms]
[OGL LOG][Proc: 0]p_non_local_coeffs: call_update: 0 [ms]
[OGL LOG][Proc: 0]p: update_local_matrix_data: 78.617 [ms]
[OGL LOG][Proc: 0]p: update_non_local_matrix_data: 0.28 [ms]
[OGL LOG][Proc: 0]p_matrix: call_update: 17.583 [ms]
[OGL LOG][Proc: 0]p_rhs: call_update: 7.104 [ms]
[OGL LOG][Proc: 0]p: init_precond: 0.05 [ms]
[OGL LOG][StoppingCriterion.H:372] Creating stopping criterion with minIter 1380 frequency 12
[OGL LOG][Proc: 0]p: generate_solver: 0.002 [ms]
[OGL LOG][Proc: 0]p: solve: 5777.61 [ms]
[OGL LOG][Proc: 0]p: copy_x_back: 6.692 [ms]
[OGL LOG][lduLduBase.H:339] 
Statistics:
	Time per iteration: 2519 [mu s]
	Time per residual norm calculation: 338.000000 [mu s]
	Time per iteration and DOF: 0.093296 [ns]
	Retrieve results bandwidth 2.017000 [GByte/s]
[OGL LOG][Proc: 0]p: solve_multi_gpu: 5809.78 [ms]
nonehipGKOCG:  Solving for p, Initial residual = 0.849025, Final residual = 9.90652e-05, No Iterations 2293
[INFO] SolveP: 5904.58 [ms]
time step continuity errors : sum local = 1.11671e-08, global = 8.58552e-22, cumulative = 1.32209e-20
[INFO] ContinuityError: 55.952 [ms]
[INFO] CorrectBoundary: 0.53 [ms]
[INFO] PISOStep: 6768.63 [ms]
[INFO] TimeStep: 17245.9 [ms]
ExecutionTime = 181.38 s  ClockTime = 184 s

Time = 0.001992

Courant Number mean: 0.0413038 max: 0.486766
[INFO] MatrixAssemblyU: 422.105 [ms]
DILUPBiCGStab:  Solving for Ux, Initial residual = 0.0176538, Final residual = 0.00159438, No Iterations 5
DILUPBiCGStab:  Solving for Uy, Initial residual = 0.0658183, Final residual = 0.00485623, No Iterations 5
DILUPBiCGStab:  Solving for Uz, Initial residual = 0.480365, Final residual = 0.0178558, No Iterations 5
[INFO] MomentumPredictor: 3335.23 [ms]
[INFO] MatrixAssemblyPI: 499.777 [ms]
[INFO] AdjustPhi: 33.881 [ms]
[INFO] ConstrainPressure: 0.004 [ms]
[INFO] MatrixAssemblyPII: 140.397 [ms]
[OGL LOG][Proc: 0]: global_index_init: 0.069 [ms]
[OGL LOG][Proc: 0]p_local_coeffs: call_update: 0 [ms]
[OGL LOG][Proc: 0]p_non_local_coeffs: call_update: 0 [ms]
[OGL LOG][Proc: 0]p: update_local_matrix_data: 82.219 [ms]
[OGL LOG][Proc: 0]p: update_non_local_matrix_data: 0.307 [ms]
[OGL LOG][Proc: 0]p_matrix: call_update: 17.371 [ms]
[OGL LOG][Proc: 0]p_rhs: call_update: 11.734 [ms]
[OGL LOG][Proc: 0]p: init_precond: 0.031 [ms]
[OGL LOG][StoppingCriterion.H:372] Creating stopping criterion with minIter 1375 frequency 11
[OGL LOG][Proc: 0]p: generate_solver: 0.002 [ms]
[OGL LOG][Proc: 0]p: solve: 5686.24 [ms]
[OGL LOG][Proc: 0]p: copy_x_back: 6.804 [ms]
[OGL LOG][lduLduBase.H:339] 
Statistics:
	Time per iteration: 2472 [mu s]
	Time per residual norm calculation: 323.000000 [mu s]
	Time per iteration and DOF: 0.091556 [ns]
	Retrieve results bandwidth 1.984000 [GByte/s]
[OGL LOG][Proc: 0]p: solve_multi_gpu: 5723.05 [ms]
nonehipGKOCG:  Solving for p, Initial residual = 0.886194, Final residual = 9.26156e-05, No Iterations 2300
[INFO] SolveP: 5821.83 [ms]
time step continuity errors : sum local = 1.09433e-08, global = 6.04477e-22, cumulative = 1.38254e-20
[INFO] ContinuityError: 63.794 [ms]
[INFO] CorrectBoundary: 6.893 [ms]
[INFO] PISOStep: 6739.95 [ms]
[INFO] MatrixAssemblyPI: 469.555 [ms]
[INFO] AdjustPhi: 30.684 [ms]
[INFO] ConstrainPressure: 0.005 [ms]
[INFO] MatrixAssemblyPII: 140.327 [ms]
[OGL LOG][Proc: 0]: global_index_init: 0.051 [ms]
[OGL LOG][Proc: 0]p_local_coeffs: call_update: 0 [ms]
[OGL LOG][Proc: 0]p_non_local_coeffs: call_update: 0 [ms]
[OGL LOG][Proc: 0]p: update_local_matrix_data: 78.863 [ms]
[OGL LOG][Proc: 0]p: update_non_local_matrix_data: 0.165 [ms]
[OGL LOG][Proc: 0]p_matrix: call_update: 16.69 [ms]
[OGL LOG][Proc: 0]p_rhs: call_update: 9.099 [ms]
[OGL LOG][Proc: 0]p: init_precond: 0.024 [ms]
[OGL LOG][StoppingCriterion.H:372] Creating stopping criterion with minIter 1380 frequency 11
[OGL LOG][Proc: 0]p: generate_solver: 0.002 [ms]
[OGL LOG][Proc: 0]p: solve: 5821.83 [ms]
[OGL LOG][Proc: 0]p: copy_x_back: 6.72 [ms]
[OGL LOG][lduLduBase.H:339] 
Statistics:
	Time per iteration: 2531 [mu s]
	Time per residual norm calculation: 444.000000 [mu s]
	Time per iteration and DOF: 0.093741 [ns]
	Retrieve results bandwidth 2.008000 [GByte/s]
[OGL LOG][Proc: 0]p: solve_multi_gpu: 5855.1 [ms]
nonehipGKOCG:  Solving for p, Initial residual = 0.815933, Final residual = 8.63105e-05, No Iterations 2300
[INFO] SolveP: 5957.22 [ms]
time step continuity errors : sum local = 1.03109e-08, global = -1.13941e-22, cumulative = 1.37114e-20
[INFO] ContinuityError: 58.531 [ms]
[INFO] CorrectBoundary: 5.071 [ms]
[INFO] PISOStep: 6824.71 [ms]
[INFO] TimeStep: 17388.2 [ms]
ExecutionTime = 198.63 s  ClockTime = 201 s

Time = 0.002158

Courant Number mean: 0.0426919 max: 0.532611
[INFO] MatrixAssemblyU: 444.026 [ms]
DILUPBiCGStab:  Solving for Ux, Initial residual = 0.0167153, Final residual = 0.00147952, No Iterations 5
DILUPBiCGStab:  Solving for Uy, Initial residual = 0.0658887, Final residual = 0.00476397, No Iterations 5
DILUPBiCGStab:  Solving for Uz, Initial residual = 0.487594, Final residual = 0.0173948, No Iterations 5
[INFO] MomentumPredictor: 3309.59 [ms]
[INFO] MatrixAssemblyPI: 496.321 [ms]
[INFO] AdjustPhi: 27.511 [ms]
[INFO] ConstrainPressure: 0.003 [ms]
[INFO] MatrixAssemblyPII: 140.833 [ms]
[OGL LOG][Proc: 0]: global_index_init: 0.101 [ms]
[OGL LOG][Proc: 0]p_local_coeffs: call_update: 0 [ms]
[OGL LOG][Proc: 0]p_non_local_coeffs: call_update: 0 [ms]
[OGL LOG][Proc: 0]p: update_local_matrix_data: 83.605 [ms]
[OGL LOG][Proc: 0]p: update_non_local_matrix_data: 0.233 [ms]
[OGL LOG][Proc: 0]p_matrix: call_update: 11.533 [ms]
[OGL LOG][Proc: 0]p_rhs: call_update: 16.827 [ms]
[OGL LOG][Proc: 0]p: init_precond: 0.035 [ms]
[OGL LOG][StoppingCriterion.H:372] Creating stopping criterion with minIter 1380 frequency 13
[OGL LOG][Proc: 0]p: generate_solver: 0.002 [ms]
[OGL LOG][Proc: 0]p: solve: 5798.55 [ms]
[OGL LOG][Proc: 0]p: copy_x_back: 8.229 [ms]
[OGL LOG][lduLduBase.H:339] 
Statistics:
	Time per iteration: 2518 [mu s]
	Time per residual norm calculation: 347.000000 [mu s]
	Time per iteration and DOF: 0.093259 [ns]
	Retrieve results bandwidth 1.640000 [GByte/s]
[OGL LOG][Proc: 0]p: solve_multi_gpu: 5835.93 [ms]
nonehipGKOCG:  Solving for p, Initial residual = 0.904136, Final residual = 8.46169e-05, No Iterations 2302
[INFO] SolveP: 5936.83 [ms]
time step continuity errors : sum local = 1.00064e-08, global = 4.58116e-22, cumulative = 1.41696e-20
[INFO] ContinuityError: 49.429 [ms]
[INFO] CorrectBoundary: 0.634 [ms]
[INFO] PISOStep: 6820.21 [ms]
[INFO] MatrixAssemblyPI: 473.174 [ms]
[INFO] AdjustPhi: 33.151 [ms]
[INFO] ConstrainPressure: 0.005 [ms]
[INFO] MatrixAssemblyPII: 140.205 [ms]
[OGL LOG][Proc: 0]: global_index_init: 0.027 [ms]
[OGL LOG][Proc: 0]p_local_coeffs: call_update: 0 [ms]
[OGL LOG][Proc: 0]p_non_local_coeffs: call_update: 0 [ms]
[OGL LOG][Proc: 0]p: update_local_matrix_data: 78.086 [ms]
[OGL LOG][Proc: 0]p: update_non_local_matrix_data: 0.449 [ms]
[OGL LOG][Proc: 0]p_matrix: call_update: 20.421 [ms]
[OGL LOG][Proc: 0]p_rhs: call_update: 11.524 [ms]
[OGL LOG][Proc: 0]p: init_precond: 0.026 [ms]
[OGL LOG][StoppingCriterion.H:372] Creating stopping criterion with minIter 1381 frequency 11
[OGL LOG][Proc: 0]p: generate_solver: 0.001 [ms]
[OGL LOG][Proc: 0]p: solve: 5683.54 [ms]
[OGL LOG][Proc: 0]p: copy_x_back: 5.945 [ms]
[OGL LOG][lduLduBase.H:339] 
Statistics:
	Time per iteration: 2471 [mu s]
	Time per residual norm calculation: 331.000000 [mu s]
	Time per iteration and DOF: 0.091519 [ns]
	Retrieve results bandwidth 2.270000 [GByte/s]
[OGL LOG][Proc: 0]p: solve_multi_gpu: 5722.17 [ms]
nonehipGKOCG:  Solving for p, Initial residual = 0.846193, Final residual = 8.31608e-05, No Iterations 2300
[INFO] SolveP: 5818.9 [ms]
time step continuity errors : sum local = 9.76674e-09, global = 5.15534e-22, cumulative = 1.46851e-20
[INFO] ContinuityError: 52.05 [ms]
[INFO] CorrectBoundary: 4.708 [ms]
[INFO] PISOStep: 6691.51 [ms]
[INFO] TimeStep: 17320.1 [ms]
ExecutionTime = 215.8 s  ClockTime = 218 s

Time = 0.002324

Courant Number mean: 0.0439262 max: 0.489817
[INFO] MatrixAssemblyU: 414.788 [ms]
DILUPBiCGStab:  Solving for Ux, Initial residual = 0.0164764, Final residual = 0.00145436, No Iterations 5
DILUPBiCGStab:  Solving for Uy, Initial residual = 0.0607026, Final residual = 0.00423224, No Iterations 5
DILUPBiCGStab:  Solving for Uz, Initial residual = 0.478303, Final residual = 0.0170176, No Iterations 5
[INFO] MomentumPredictor: 3342.19 [ms]
[INFO] MatrixAssemblyPI: 497.275 [ms]
[INFO] AdjustPhi: 33.405 [ms]
[INFO] ConstrainPressure: 0.003 [ms]
[INFO] MatrixAssemblyPII: 140.15 [ms]
[OGL LOG][Proc: 0]: global_index_init: 0.111 [ms]
[OGL LOG][Proc: 0]p_local_coeffs: call_update: 0 [ms]
[OGL LOG][Proc: 0]p_non_local_coeffs: call_update: 0 [ms]
[OGL LOG][Proc: 0]p: update_local_matrix_data: 84.025 [ms]
[OGL LOG][Proc: 0]p: update_non_local_matrix_data: 0.178 [ms]
[OGL LOG][Proc: 0]p_matrix: call_update: 12.703 [ms]
[OGL LOG][Proc: 0]p_rhs: call_update: 14.496 [ms]
[OGL LOG][Proc: 0]p: init_precond: 0.042 [ms]
[OGL LOG][StoppingCriterion.H:372] Creating stopping criterion with minIter 1380 frequency 11
[OGL LOG][Proc: 0]p: generate_solver: 0.002 [ms]
[OGL LOG][Proc: 0]p: solve: 5693.3 [ms]
[OGL LOG][Proc: 0]p: copy_x_back: 6.684 [ms]
[OGL LOG][lduLduBase.H:339] 
Statistics:
	Time per iteration: 2475 [mu s]
	Time per residual norm calculation: 350.000000 [mu s]
	Time per iteration and DOF: 0.091667 [ns]
	Retrieve results bandwidth 2.019000 [GByte/s]
[OGL LOG][Proc: 0]p: solve_multi_gpu: 5727.94 [ms]
nonehipGKOCG:  Solving for p, Initial residual = 0.888609, Final residual = 8.79345e-05, No Iterations 2300
[INFO] SolveP: 5830.12 [ms]
time step continuity errors : sum local = 1.08225e-08, global = 2.88741e-22, cumulative = 1.49738e-20
[INFO] ContinuityError: 59.248 [ms]
[INFO] CorrectBoundary: 0.745 [ms]
[INFO] PISOStep: 6735.97 [ms]
[INFO] MatrixAssemblyPI: 477.813 [ms]
[INFO] AdjustPhi: 33.632 [ms]
[INFO] ConstrainPressure: 0.004 [ms]
[INFO] MatrixAssemblyPII: 139.81 [ms]
[OGL LOG][Proc: 0]: global_index_init: 0.056 [ms]
[OGL LOG][Proc: 0]p_local_coeffs: call_update: 0 [ms]
[OGL LOG][Proc: 0]p_non_local_coeffs: call_update: 0 [ms]
[OGL LOG][Proc: 0]p: update_local_matrix_data: 78.775 [ms]
[OGL LOG][Proc: 0]p: update_non_local_matrix_data: 0.169 [ms]
[OGL LOG][Proc: 0]p_matrix: call_update: 18.017 [ms]
[OGL LOG][Proc: 0]p_rhs: call_update: 9.321 [ms]
[OGL LOG][Proc: 0]p: init_precond: 0.031 [ms]
[OGL LOG][StoppingCriterion.H:372] Creating stopping criterion with minIter 1380 frequency 11
[OGL LOG][Proc: 0]p: generate_solver: 0.002 [ms]
[OGL LOG][Proc: 0]p: solve: 5699.19 [ms]
[OGL LOG][Proc: 0]p: copy_x_back: 7.239 [ms]
[OGL LOG][lduLduBase.H:339] 
Statistics:
	Time per iteration: 2477 [mu s]
	Time per residual norm calculation: 334.000000 [mu s]
	Time per iteration and DOF: 0.091741 [ns]
	Retrieve results bandwidth 1.864000 [GByte/s]
[OGL LOG][Proc: 0]p: solve_multi_gpu: 5734.44 [ms]
nonehipGKOCG:  Solving for p, Initial residual = 0.817172, Final residual = 8.22325e-05, No Iterations 2300
[INFO] SolveP: 5829.69 [ms]
time step continuity errors : sum local = 1.02181e-08, global = 4.52992e-22, cumulative = 1.54268e-20
[INFO] ContinuityError: 55.961 [ms]
[INFO] CorrectBoundary: 9.803 [ms]
[INFO] PISOStep: 6716.76 [ms]
[INFO] TimeStep: 17275.6 [ms]
ExecutionTime = 232.9 s  ClockTime = 236 s

Time = 0.00249

Courant Number mean: 0.0451537 max: 0.541229
[INFO] MatrixAssemblyU: 443.997 [ms]
DILUPBiCGStab:  Solving for Ux, Initial residual = 0.0157223, Final residual = 0.00134387, No Iterations 5
DILUPBiCGStab:  Solving for Uy, Initial residual = 0.0615797, Final residual = 0.00421534, No Iterations 5
DILUPBiCGStab:  Solving for Uz, Initial residual = 0.487643, Final residual = 0.0167893, No Iterations 5
[INFO] MomentumPredictor: 3308.41 [ms]
[INFO] MatrixAssemblyPI: 497.118 [ms]
[INFO] AdjustPhi: 31.59 [ms]
[INFO] ConstrainPressure: 0.003 [ms]
[INFO] MatrixAssemblyPII: 140.825 [ms]
[OGL LOG][Proc: 0]: global_index_init: 0.064 [ms]
[OGL LOG][Proc: 0]p_local_coeffs: call_update: 0 [ms]
[OGL LOG][Proc: 0]p_non_local_coeffs: call_update: 0 [ms]
[OGL LOG][Proc: 0]p: update_local_matrix_data: 83.563 [ms]
[OGL LOG][Proc: 0]p: update_non_local_matrix_data: 0.421 [ms]
[OGL LOG][Proc: 0]p_matrix: call_update: 12.341 [ms]
[OGL LOG][Proc: 0]p_rhs: call_update: 18.785 [ms]
[OGL LOG][Proc: 0]p: init_precond: 0.037 [ms]
[OGL LOG][StoppingCriterion.H:372] Creating stopping criterion with minIter 1380 frequency 11
[OGL LOG][Proc: 0]p: generate_solver: 0.002 [ms]
[OGL LOG][Proc: 0]p: solve: 5811.73 [ms]
[OGL LOG][Proc: 0]p: copy_x_back: 7.181 [ms]
[OGL LOG][lduLduBase.H:339] 
Statistics:
	Time per iteration: 2526 [mu s]
	Time per residual norm calculation: 349.000000 [mu s]
	Time per iteration and DOF: 0.093556 [ns]
	Retrieve results bandwidth 1.879000 [GByte/s]
[OGL LOG][Proc: 0]p: solve_multi_gpu: 5850.97 [ms]
nonehipGKOCG:  Solving for p, Initial residual = 0.904989, Final residual = 8.61306e-05, No Iterations 2300
[INFO] SolveP: 5953.9 [ms]
time step continuity errors : sum local = 1.06444e-08, global = 1.06232e-21, cumulative = 1.64891e-20
[INFO] ContinuityError: 46.121 [ms]
[INFO] CorrectBoundary: 2.835 [ms]
[INFO] PISOStep: 6840.99 [ms]
[INFO] MatrixAssemblyPI: 477.777 [ms]
[INFO] AdjustPhi: 26.165 [ms]
[INFO] ConstrainPressure: 0.004 [ms]
[INFO] MatrixAssemblyPII: 140.679 [ms]
[OGL LOG][Proc: 0]: global_index_init: 0.045 [ms]
[OGL LOG][Proc: 0]p_local_coeffs: call_update: 0 [ms]
[OGL LOG][Proc: 0]p_non_local_coeffs: call_update: 0 [ms]
[OGL LOG][Proc: 0]p: update_local_matrix_data: 78.002 [ms]
[OGL LOG][Proc: 0]p: update_non_local_matrix_data: 0.198 [ms]
[OGL LOG][Proc: 0]p_matrix: call_update: 19.43 [ms]
[OGL LOG][Proc: 0]p_rhs: call_update: 11.584 [ms]
[OGL LOG][Proc: 0]p: init_precond: 0.026 [ms]
[OGL LOG][StoppingCriterion.H:372] Creating stopping criterion with minIter 1380 frequency 11
[OGL LOG][Proc: 0]p: generate_solver: 0.001 [ms]
[OGL LOG][Proc: 0]p: solve: 5647.4 [ms]
[OGL LOG][Proc: 0]p: copy_x_back: 6.281 [ms]
[OGL LOG][lduLduBase.H:339] 
Statistics:
	Time per iteration: 2455 [mu s]
	Time per residual norm calculation: 353.000000 [mu s]
	Time per iteration and DOF: 0.090926 [ns]
	Retrieve results bandwidth 2.149000 [GByte/s]
[OGL LOG][Proc: 0]p: solve_multi_gpu: 5685.45 [ms]
nonehipGKOCG:  Solving for p, Initial residual = 0.844023, Final residual = 8.1386e-05, No Iterations 2300
[INFO] SolveP: 5780.56 [ms]
time step continuity errors : sum local = 1.00024e-08, global = -9.06298e-22, cumulative = 1.55828e-20
[INFO] ContinuityError: 48.75 [ms]
[INFO] CorrectBoundary: 3.097 [ms]
[INFO] PISOStep: 6650.24 [ms]
[INFO] TimeStep: 17297.9 [ms]
ExecutionTime = 250.04 s  ClockTime = 253 s

Time = 0.002656

Courant Number mean: 0.0462455 max: 0.492917
[INFO] MatrixAssemblyU: 419.83 [ms]
DILUPBiCGStab:  Solving for Ux, Initial residual = 0.0156967, Final residual = 0.00133879, No Iterations 5
DILUPBiCGStab:  Solving for Uy, Initial residual = 0.0574908, Final residual = 0.00377549, No Iterations 5
DILUPBiCGStab:  Solving for Uz, Initial residual = 0.481441, Final residual = 0.016504, No Iterations 5
[INFO] MomentumPredictor: 3347.58 [ms]
[INFO] MatrixAssemblyPI: 498.315 [ms]
[INFO] AdjustPhi: 28.952 [ms]
[INFO] ConstrainPressure: 0.003 [ms]
[INFO] MatrixAssemblyPII: 140.658 [ms]
[OGL LOG][Proc: 0]: global_index_init: 0.063 [ms]
[OGL LOG][Proc: 0]p_local_coeffs: call_update: 0 [ms]
[OGL LOG][Proc: 0]p_non_local_coeffs: call_update: 0 [ms]
[OGL LOG][Proc: 0]p: update_local_matrix_data: 80.823 [ms]
[OGL LOG][Proc: 0]p: update_non_local_matrix_data: 0.262 [ms]
[OGL LOG][Proc: 0]p_matrix: call_update: 19.614 [ms]
[OGL LOG][Proc: 0]p_rhs: call_update: 9.843 [ms]
[OGL LOG][Proc: 0]p: init_precond: 0.034 [ms]
[OGL LOG][StoppingCriterion.H:372] Creating stopping criterion with minIter 1380 frequency 12
[OGL LOG][Proc: 0]p: generate_solver: 0.002 [ms]
[OGL LOG][Proc: 0]p: solve: 5808.16 [ms]
[OGL LOG][Proc: 0]p: copy_x_back: 6.397 [ms]
[OGL LOG][lduLduBase.H:339] 
Statistics:
	Time per iteration: 2532 [mu s]
	Time per residual norm calculation: 358.000000 [mu s]
	Time per iteration and DOF: 0.093778 [ns]
	Retrieve results bandwidth 2.110000 [GByte/s]
[OGL LOG][Proc: 0]p: solve_multi_gpu: 5844.75 [ms]
nonehipGKOCG:  Solving for p, Initial residual = 0.891509, Final residual = 9.58431e-05, No Iterations 2293
[INFO] SolveP: 5942.76 [ms]
time step continuity errors : sum local = 1.23154e-08, global = 6.41953e-22, cumulative = 1.62248e-20
[INFO] ContinuityError: 58.007 [ms]
[INFO] CorrectBoundary: 1.932 [ms]
[INFO] PISOStep: 6840.62 [ms]
[INFO] MatrixAssemblyPI: 475.838 [ms]
[INFO] AdjustPhi: 37.448 [ms]
[INFO] ConstrainPressure: 0.005 [ms]
[INFO] MatrixAssemblyPII: 139.595 [ms]
[OGL LOG][Proc: 0]: global_index_init: 0.1 [ms]
[OGL LOG][Proc: 0]p_local_coeffs: call_update: 0 [ms]
[OGL LOG][Proc: 0]p_non_local_coeffs: call_update: 0 [ms]
[OGL LOG][Proc: 0]p: update_local_matrix_data: 78.464 [ms]
[OGL LOG][Proc: 0]p: update_non_local_matrix_data: 0.199 [ms]
[OGL LOG][Proc: 0]p_matrix: call_update: 17.343 [ms]
[OGL LOG][Proc: 0]p_rhs: call_update: 15.846 [ms]
[OGL LOG][Proc: 0]p: init_precond: 0.031 [ms]
[OGL LOG][StoppingCriterion.H:372] Creating stopping criterion with minIter 1375 frequency 11
[OGL LOG][Proc: 0]p: generate_solver: 0.002 [ms]
[OGL LOG][Proc: 0]p: solve: 5673.63 [ms]
[OGL LOG][Proc: 0]p: copy_x_back: 6.416 [ms]
[OGL LOG][lduLduBase.H:339] 
Statistics:
	Time per iteration: 2466 [mu s]
	Time per residual norm calculation: 323.000000 [mu s]
	Time per iteration and DOF: 0.091333 [ns]
	Retrieve results bandwidth 2.104000 [GByte/s]
[OGL LOG][Proc: 0]p: solve_multi_gpu: 5713.94 [ms]
nonehipGKOCG:  Solving for p, Initial residual = 0.819144, Final residual = 7.95965e-05, No Iterations 2300
[INFO] SolveP: 5808.86 [ms]
time step continuity errors : sum local = 1.03131e-08, global = -9.60841e-22, cumulative = 1.5264e-20
[INFO] ContinuityError: 54.676 [ms]
[INFO] CorrectBoundary: 4.297 [ms]
[INFO] PISOStep: 6687.33 [ms]
[INFO] TimeStep: 17356.4 [ms]
ExecutionTime = 267.27 s  ClockTime = 270 s

Time = 0.002822

Courant Number mean: 0.0473494 max: 0.551302
[INFO] MatrixAssemblyU: 442.498 [ms]
DILUPBiCGStab:  Solving for Ux, Initial residual = 0.0151172, Final residual = 0.00123584, No Iterations 5
DILUPBiCGStab:  Solving for Uy, Initial residual = 0.0587974, Final residual = 0.00380463, No Iterations 5
DILUPBiCGStab:  Solving for Uz, Initial residual = 0.491911, Final residual = 0.0164317, No Iterations 5
[INFO] MomentumPredictor: 3316.09 [ms]
[INFO] MatrixAssemblyPI: 496.864 [ms]
[INFO] AdjustPhi: 32.142 [ms]
[INFO] ConstrainPressure: 0.003 [ms]
[INFO] MatrixAssemblyPII: 140.598 [ms]
[OGL LOG][Proc: 0]: global_index_init: 0.033 [ms]
[OGL LOG][Proc: 0]p_local_coeffs: call_update: 0 [ms]
[OGL LOG][Proc: 0]p_non_local_coeffs: call_update: 0 [ms]
[OGL LOG][Proc: 0]p: update_local_matrix_data: 82.72 [ms]
[OGL LOG][Proc: 0]p: update_non_local_matrix_data: 0.467 [ms]
[OGL LOG][Proc: 0]p_matrix: call_update: 16.51 [ms]
[OGL LOG][Proc: 0]p_rhs: call_update: 6.022 [ms]
[OGL LOG][Proc: 0]p: init_precond: 0.042 [ms]
[OGL LOG][StoppingCriterion.H:372] Creating stopping criterion with minIter 1380 frequency 11
[OGL LOG][Proc: 0]p: generate_solver: 0.004 [ms]
[OGL LOG][Proc: 0]p: solve: 5793.31 [ms]
[OGL LOG][Proc: 0]p: copy_x_back: 6.33 [ms]
[OGL LOG][lduLduBase.H:339] 
Statistics:
	Time per iteration: 2518 [mu s]
	Time per residual norm calculation: 338.000000 [mu s]
	Time per iteration and DOF: 0.093259 [ns]
	Retrieve results bandwidth 2.132000 [GByte/s]
[OGL LOG][Proc: 0]p: solve_multi_gpu: 5822.89 [ms]
nonehipGKOCG:  Solving for p, Initial residual = 0.906287, Final residual = 8.58088e-05, No Iterations 2300
[INFO] SolveP: 5922.53 [ms]
time step continuity errors : sum local = 1.11161e-08, global = -1.54562e-23, cumulative = 1.52485e-20
[INFO] ContinuityError: 51.866 [ms]
[INFO] CorrectBoundary: 1.053 [ms]
[INFO] PISOStep: 6816.35 [ms]
[INFO] MatrixAssemblyPI: 475.42 [ms]
[INFO] AdjustPhi: 30.292 [ms]
[INFO] ConstrainPressure: 0.003 [ms]
[INFO] MatrixAssemblyPII: 140.404 [ms]
[OGL LOG][Proc: 0]: global_index_init: 0.046 [ms]
[OGL LOG][Proc: 0]p_local_coeffs: call_update: 0 [ms]
[OGL LOG][Proc: 0]p_non_local_coeffs: call_update: 0 [ms]
[OGL LOG][Proc: 0]p: update_local_matrix_data: 75.144 [ms]
[OGL LOG][Proc: 0]p: update_non_local_matrix_data: 0.486 [ms]
[OGL LOG][Proc: 0]p_matrix: call_update: 14.004 [ms]
[OGL LOG][Proc: 0]p_rhs: call_update: 22.654 [ms]
[OGL LOG][Proc: 0]p: init_precond: 0.027 [ms]
[OGL LOG][StoppingCriterion.H:372] Creating stopping criterion with minIter 1380 frequency 11
[OGL LOG][Proc: 0]p: generate_solver: 0.002 [ms]
[OGL LOG][Proc: 0]p: solve: 5694.79 [ms]
[OGL LOG][Proc: 0]p: copy_x_back: 5.809 [ms]
[OGL LOG][lduLduBase.H:339] 
Statistics:
	Time per iteration: 2475 [mu s]
	Time per residual norm calculation: 358.000000 [mu s]
	Time per iteration and DOF: 0.091667 [ns]
	Retrieve results bandwidth 2.323000 [GByte/s]
[OGL LOG][Proc: 0]p: solve_multi_gpu: 5738.06 [ms]
nonehipGKOCG:  Solving for p, Initial residual = 0.842344, Final residual = 8.08465e-05, No Iterations 2300
[INFO] SolveP: 5830.03 [ms]
time step continuity errors : sum local = 1.04279e-08, global = 2.23008e-22, cumulative = 1.54715e-20
[INFO] ContinuityError: 54.655 [ms]
[INFO] CorrectBoundary: 3.99 [ms]
[INFO] PISOStep: 6709.28 [ms]
[INFO] TimeStep: 17343.1 [ms]
ExecutionTime = 284.48 s  ClockTime = 288 s

Time = 0.002988

Courant Number mean: 0.0483286 max: 0.496232
[INFO] MatrixAssemblyU: 416.824 [ms]
DILUPBiCGStab:  Solving for Ux, Initial residual = 0.0152256, Final residual = 0.0012428, No Iterations 5
DILUPBiCGStab:  Solving for Uy, Initial residual = 0.0556664, Final residual = 0.00343574, No Iterations 5
DILUPBiCGStab:  Solving for Uz, Initial residual = 0.487988, Final residual = 0.0162021, No Iterations 5
[INFO] MomentumPredictor: 3341.26 [ms]
[INFO] MatrixAssemblyPI: 498.387 [ms]
[INFO] AdjustPhi: 28.931 [ms]
[INFO] ConstrainPressure: 0.003 [ms]
[INFO] MatrixAssemblyPII: 140.617 [ms]
[OGL LOG][Proc: 0]: global_index_init: 0.089 [ms]
[OGL LOG][Proc: 0]p_local_coeffs: call_update: 0 [ms]
[OGL LOG][Proc: 0]p_non_local_coeffs: call_update: 0 [ms]
[OGL LOG][Proc: 0]p: update_local_matrix_data: 85.841 [ms]
[OGL LOG][Proc: 0]p: update_non_local_matrix_data: 0.271 [ms]
[OGL LOG][Proc: 0]p_matrix: call_update: 11.31 [ms]
[OGL LOG][Proc: 0]p_rhs: call_update: 12.273 [ms]
[OGL LOG][Proc: 0]p: init_precond: 0.036 [ms]
[OGL LOG][StoppingCriterion.H:372] Creating stopping criterion with minIter 1380 frequency 12
[OGL LOG][Proc: 0]p: generate_solver: 0.002 [ms]
[OGL LOG][Proc: 0]p: solve: 5831.12 [ms]
[OGL LOG][Proc: 0]p: copy_x_back: 7.206 [ms]
[OGL LOG][lduLduBase.H:339] 
Statistics:
	Time per iteration: 2529 [mu s]
	Time per residual norm calculation: 346.000000 [mu s]
	Time per iteration and DOF: 0.093667 [ns]
	Retrieve results bandwidth 1.873000 [GByte/s]
[OGL LOG][Proc: 0]p: solve_multi_gpu: 5862.63 [ms]
nonehipGKOCG:  Solving for p, Initial residual = 0.895981, Final residual = 8.15986e-05, No Iterations 2305
[INFO] SolveP: 5967.7 [ms]
time step continuity errors : sum local = 1.09834e-08, global = 1.06468e-21, cumulative = 1.65362e-20
[INFO] ContinuityError: 51.02 [ms]
[INFO] CorrectBoundary: 0.642 [ms]
[INFO] PISOStep: 6862.73 [ms]
[INFO] MatrixAssemblyPI: 474.504 [ms]
[INFO] AdjustPhi: 36.009 [ms]
[INFO] ConstrainPressure: 0.005 [ms]
[INFO] MatrixAssemblyPII: 139.896 [ms]
[OGL LOG][Proc: 0]: global_index_init: 0.05 [ms]
[OGL LOG][Proc: 0]p_local_coeffs: call_update: 0 [ms]
[OGL LOG][Proc: 0]p_non_local_coeffs: call_update: 0 [ms]
[OGL LOG][Proc: 0]p: update_local_matrix_data: 78.602 [ms]
[OGL LOG][Proc: 0]p: update_non_local_matrix_data: 0.24 [ms]
[OGL LOG][Proc: 0]p_matrix: call_update: 19.667 [ms]
[OGL LOG][Proc: 0]p_rhs: call_update: 7.689 [ms]
[OGL LOG][Proc: 0]p: init_precond: 0.023 [ms]
[OGL LOG][StoppingCriterion.H:372] Creating stopping criterion with minIter 1383 frequency 11
[OGL LOG][Proc: 0]p: generate_solver: 0.001 [ms]
[OGL LOG][Proc: 0]p: solve: 5790.5 [ms]
[OGL LOG][Proc: 0]p: copy_x_back: 5.687 [ms]
[OGL LOG][lduLduBase.H:339] 
Statistics:
	Time per iteration: 2517 [mu s]
	Time per residual norm calculation: 540.000000 [mu s]
	Time per iteration and DOF: 0.093222 [ns]
	Retrieve results bandwidth 2.373000 [GByte/s]
[OGL LOG][Proc: 0]p: solve_multi_gpu: 5824.33 [ms]
nonehipGKOCG:  Solving for p, Initial residual = 0.822288, Final residual = 8.32057e-05, No Iterations 2300
[INFO] SolveP: 5919.95 [ms]
time step continuity errors : sum local = 1.12809e-08, global = 1.84601e-22, cumulative = 1.67208e-20
[INFO] ContinuityError: 55.916 [ms]
[INFO] CorrectBoundary: 10.12 [ms]
[INFO] PISOStep: 6803.43 [ms]
[INFO] TimeStep: 17488.2 [ms]
ExecutionTime = 301.84 s  ClockTime = 305 s

Time = 0.003154

Courant Number mean: 0.0493356 max: 0.562808
[INFO] MatrixAssemblyU: 444.571 [ms]
DILUPBiCGStab:  Solving for Ux, Initial residual = 0.0148193, Final residual = 0.0011505, No Iterations 5
DILUPBiCGStab:  Solving for Uy, Initial residual = 0.0572293, Final residual = 0.00349283, No Iterations 5
DILUPBiCGStab:  Solving for Uz, Initial residual = 0.499021, Final residual = 0.016226, No Iterations 5
[INFO] MomentumPredictor: 3313.74 [ms]
[INFO] MatrixAssemblyPI: 499.123 [ms]
[INFO] AdjustPhi: 26.557 [ms]
[INFO] ConstrainPressure: 0.003 [ms]
[INFO] MatrixAssemblyPII: 140.748 [ms]
[OGL LOG][Proc: 0]: global_index_init: 0.101 [ms]
[OGL LOG][Proc: 0]p_local_coeffs: call_update: 0 [ms]
[OGL LOG][Proc: 0]p_non_local_coeffs: call_update: 0 [ms]
[OGL LOG][Proc: 0]p: update_local_matrix_data: 80.337 [ms]
[OGL LOG][Proc: 0]p: update_non_local_matrix_data: 0.17 [ms]
[OGL LOG][Proc: 0]p_matrix: call_update: 16.058 [ms]
[OGL LOG][Proc: 0]p_rhs: call_update: 7.533 [ms]
[OGL LOG][Proc: 0]p: init_precond: 0.037 [ms]
[OGL LOG][StoppingCriterion.H:372] Creating stopping criterion with minIter 1380 frequency 15
[OGL LOG][Proc: 0]p: generate_solver: 0.002 [ms]
[OGL LOG][Proc: 0]p: solve: 5780.75 [ms]
[OGL LOG][Proc: 0]p: copy_x_back: 5.937 [ms]
[OGL LOG][lduLduBase.H:339] 
Statistics:
	Time per iteration: 2517 [mu s]
	Time per residual norm calculation: 330.000000 [mu s]
	Time per iteration and DOF: 0.093222 [ns]
	Retrieve results bandwidth 2.273000 [GByte/s]
[OGL LOG][Proc: 0]p: solve_multi_gpu: 5810.98 [ms]
nonehipGKOCG:  Solving for p, Initial residual = 0.908903, Final residual = 9.55357e-05, No Iterations 2296
[INFO] SolveP: 5908.46 [ms]
time step continuity errors : sum local = 1.30324e-08, global = 1.54922e-21, cumulative = 1.827e-20
[INFO] ContinuityError: 52.589 [ms]
[INFO] CorrectBoundary: 7.422 [ms]
[INFO] PISOStep: 6804.82 [ms]
[INFO] MatrixAssemblyPI: 468.471 [ms]
[INFO] AdjustPhi: 31.263 [ms]
[INFO] ConstrainPressure: 0.004 [ms]
[INFO] MatrixAssemblyPII: 140.092 [ms]
[OGL LOG][Proc: 0]: global_index_init: 0.075 [ms]
[OGL LOG][Proc: 0]p_local_coeffs: call_update: 0 [ms]
[OGL LOG][Proc: 0]p_non_local_coeffs: call_update: 0 [ms]
[OGL LOG][Proc: 0]p: update_local_matrix_data: 78.362 [ms]
[OGL LOG][Proc: 0]p: update_non_local_matrix_data: 0.168 [ms]
[OGL LOG][Proc: 0]p_matrix: call_update: 19.644 [ms]
[OGL LOG][Proc: 0]p_rhs: call_update: 13.282 [ms]
[OGL LOG][Proc: 0]p: init_precond: 0.026 [ms]
[OGL LOG][StoppingCriterion.H:372] Creating stopping criterion with minIter 1377 frequency 11
[OGL LOG][Proc: 0]p: generate_solver: 0.002 [ms]
[OGL LOG][Proc: 0]p: solve: 5685.04 [ms]
[OGL LOG][Proc: 0]p: copy_x_back: 6.047 [ms]
[OGL LOG][lduLduBase.H:339] 
Statistics:
	Time per iteration: 2471 [mu s]
	Time per residual norm calculation: 333.000000 [mu s]
	Time per iteration and DOF: 0.091519 [ns]
	Retrieve results bandwidth 2.232000 [GByte/s]
[OGL LOG][Proc: 0]p: solve_multi_gpu: 5724.7 [ms]
nonehipGKOCG:  Solving for p, Initial residual = 0.842019, Final residual = 8.32448e-05, No Iterations 2300
[INFO] SolveP: 5821.26 [ms]
time step continuity errors : sum local = 1.13186e-08, global = 1.27834e-21, cumulative = 1.95483e-20
[INFO] ContinuityError: 60.275 [ms]
[INFO] CorrectBoundary: 4.97 [ms]
[INFO] PISOStep: 6696.64 [ms]
[INFO] TimeStep: 17317.6 [ms]
ExecutionTime = 319.03 s  ClockTime = 322 s

Time = 0.00332

Courant Number mean: 0.0502223 max: 0.499821
[INFO] MatrixAssemblyU: 411.331 [ms]
DILUPBiCGStab:  Solving for Ux, Initial residual = 0.015026, Final residual = 0.00116337, No Iterations 5
DILUPBiCGStab:  Solving for Uy, Initial residual = 0.0548733, Final residual = 0.00318322, No Iterations 5
DILUPBiCGStab:  Solving for Uz, Initial residual = 0.497013, Final residual = 0.0160743, No Iterations 5
[INFO] MomentumPredictor: 3346.32 [ms]
[INFO] MatrixAssemblyPI: 499.636 [ms]
[INFO] AdjustPhi: 27.686 [ms]
[INFO] ConstrainPressure: 0.004 [ms]
[INFO] MatrixAssemblyPII: 140.666 [ms]
[OGL LOG][Proc: 0]: global_index_init: 0.079 [ms]
[OGL LOG][Proc: 0]p_local_coeffs: call_update: 0 [ms]
[OGL LOG][Proc: 0]p_non_local_coeffs: call_update: 0 [ms]
[OGL LOG][Proc: 0]p: update_local_matrix_data: 83.194 [ms]
[OGL LOG][Proc: 0]p: update_non_local_matrix_data: 0.279 [ms]
[OGL LOG][Proc: 0]p_matrix: call_update: 12.946 [ms]
[OGL LOG][Proc: 0]p_rhs: call_update: 21.343 [ms]
[OGL LOG][Proc: 0]p: init_precond: 0.034 [ms]
[OGL LOG][StoppingCriterion.H:372] Creating stopping criterion with minIter 1380 frequency 11
[OGL LOG][Proc: 0]p: generate_solver: 0.002 [ms]
[OGL LOG][Proc: 0]p: solve: 5808.98 [ms]
[OGL LOG][Proc: 0]p: copy_x_back: 7.09 [ms]
[OGL LOG][lduLduBase.H:339] 
Statistics:
	Time per iteration: 2525 [mu s]
	Time per residual norm calculation: 339.000000 [mu s]
	Time per iteration and DOF: 0.093519 [ns]
	Retrieve results bandwidth 1.904000 [GByte/s]
[OGL LOG][Proc: 0]p: solve_multi_gpu: 5851.12 [ms]
nonehipGKOCG:  Solving for p, Initial residual = 0.901477, Final residual = 9.06125e-05, No Iterations 2300
[INFO] SolveP: 5952.93 [ms]
time step continuity errors : sum local = 1.28344e-08, global = 1.33367e-21, cumulative = 2.0882e-20
[INFO] ContinuityError: 47.851 [ms]
[INFO] CorrectBoundary: 4.361 [ms]
[INFO] PISOStep: 6852.45 [ms]
[INFO] MatrixAssemblyPI: 475.002 [ms]
[INFO] AdjustPhi: 30.762 [ms]
[INFO] ConstrainPressure: 0.004 [ms]
[INFO] MatrixAssemblyPII: 140.194 [ms]
[OGL LOG][Proc: 0]: global_index_init: 0.023 [ms]
[OGL LOG][Proc: 0]p_local_coeffs: call_update: 0 [ms]
[OGL LOG][Proc: 0]p_non_local_coeffs: call_update: 0 [ms]
[OGL LOG][Proc: 0]p: update_local_matrix_data: 78.219 [ms]
[OGL LOG][Proc: 0]p: update_non_local_matrix_data: 0.185 [ms]
[OGL LOG][Proc: 0]p_matrix: call_update: 20.705 [ms]
[OGL LOG][Proc: 0]p_rhs: call_update: 12.605 [ms]
[OGL LOG][Proc: 0]p: init_precond: 0.026 [ms]
[OGL LOG][StoppingCriterion.H:372] Creating stopping criterion with minIter 1380 frequency 11
[OGL LOG][Proc: 0]p: generate_solver: 0.002 [ms]
[OGL LOG][Proc: 0]p: solve: 5702.55 [ms]
[OGL LOG][Proc: 0]p: copy_x_back: 6.061 [ms]
[OGL LOG][lduLduBase.H:339] 
Statistics:
	Time per iteration: 2479 [mu s]
	Time per residual norm calculation: 347.000000 [mu s]
	Time per iteration and DOF: 0.091815 [ns]
	Retrieve results bandwidth 2.227000 [GByte/s]
[OGL LOG][Proc: 0]p: solve_multi_gpu: 5742.69 [ms]
nonehipGKOCG:  Solving for p, Initial residual = 0.826545, Final residual = 8.45818e-05, No Iterations 2300
[INFO] SolveP: 5839.32 [ms]
time step continuity errors : sum local = 1.2056e-08, global = 2.9129e-22, cumulative = 2.11733e-20
[INFO] ContinuityError: 57.897 [ms]
[INFO] CorrectBoundary: 4.544 [ms]
[INFO] PISOStep: 6715.59 [ms]
[INFO] TimeStep: 17388.1 [ms]
ExecutionTime = 336.3 s  ClockTime = 340 s

End

Finalising parallel run
