/*---------------------------------------------------------------------------*\
| =========                 |                                                 |
| \\      /  F ield         | OpenFOAM: The Open Source CFD Toolbox           |
|  \\    /   O peration     | Version:  2306                                  |
|   \\  /    A nd           | Website:  www.openfoam.com                      |
|    \\/     M anipulation  |                                                 |
\*---------------------------------------------------------------------------*/
Build  : c423ebec-20231012 OPENFOAM=2306 version=v2306
Arch   : "LSB;label=32;scalar=64"
Exec   : icoFoam -parallel -case /hkfs/work/workspace/scratch/eq4036-l3d/workspace/5873ede19fd6a9b45a4972a236d0479a/case
Date   : Jan 10 2024
Time   : 22:01:38
Host   : hkn0519.localdomain
PID    : 1996610
I/O    : uncollated
Case   : /hkfs/work/workspace/scratch/eq4036-l3d/workspace/5873ede19fd6a9b45a4972a236d0479a/case
nProcs : 16
Hosts  :
(
    (hkn0519.localdomain 16)
)
Pstream initialized with:
    floatTransfer      : false
    nProcsSimpleSum    : 0
    nonBlockingExchange: 0 (tuning: 0)
    exchange algorithm : -1
    commsType          : nonBlocking
    polling iterations : 0
trapFpe: Floating point exception trapping enabled (FOAM_SIGFPE).
fileModificationChecking : Monitoring run-time modified files using timeStampMaster (fileModificationSkew 5, maxFileModificationPolls 20)
allowSystemOperations : Allowing user-supplied system call operations

// * * * * * * * * * * * * * * * * * * * * * * * * * * * * * * * * * * * * * //
Create time

--> FOAM Warning : 
    From void* Foam::dlLibraryTable::openLibrary(const Foam::fileName&, bool)
    in file db/dynamicLibrary/dlLibraryTable/dlLibraryTable.C at line 188
    Could not load "libpetscFoam.so"
libpetscFoam.so: cannot open shared object file: No such file or directory
Create mesh for time = 0


PISO: Operating solver in PISO mode

Reading transportProperties

Reading field p

Reading field U

Reading/calculating face flux field phi


Starting time loop

Time = 0.000125

Courant Number mean: 8.02505e-18 max: 4.85723e-14
[INFO] MatrixAssemblyU: 1380.99 [ms]
DILUPBiCGStab:  Solving for Ux, Initial residual = 1, Final residual = 0.0215184, No Iterations 5
DILUPBiCGStab:  Solving for Uy:  solution singularity
DILUPBiCGStab:  Solving for Uz:  solution singularity
[INFO] MomentumPredictor: 4399.17 [ms]
[INFO] MatrixAssemblyPI: 1224.55 [ms]
[INFO] AdjustPhi: 50.455 [ms]
[INFO] ConstrainPressure: 0.007 [ms]
[INFO] MatrixAssemblyPII: 377.359 [ms]
[OGL LOG][lduLduBase.H:119] Initialising OGL
	OGL commit:  e75313f+
	Branch: dev 
	Build type: Debug
	Ginkgo version: 1.8.0 ( develop)
	Ginkgo commit: sparse-communicator
	MPI is GPU aware: 1
	Forces host buffer based communication: 0
	CPU ranks per GPU: 1
	Matrix format: Ell
	End OGL_INFO
[OGL LOG][Proc: 0]: global_index_init: 2.59 [ms]
[OGL LOG][Proc: 0]p_local_cols: call_init: 0.981 [ms]
[OGL LOG][Proc: 0]p_local_rows: call_init: 0.264 [ms]
[OGL LOG][Proc: 0]p_local_ldu_map: call_init: 0.105 [ms]
[OGL LOG][Proc: 0]p_local_coeffs: call_init: 8.289 [ms]
[OGL LOG][Proc: 0]p_non_local_cols: call_init: 0.027 [ms]
[OGL LOG][Proc: 0]p_non_local_rows: call_init: 0.099 [ms]
[OGL LOG][Proc: 0]p_non_local_ldu_map: call_init: 0.158 [ms]
[OGL LOG][Proc: 0]p_non_local_coeffs: call_init: 0.276 [ms]
[OGL LOG][Proc: 0]p: init_local_sparsity_pattern: 118100 [ms]
[OGL LOG][Proc: 0]p: init_non_local_sparsity_pattern: 529.361 [ms]
[OGL LOG][Proc: 0]p: update_local_matrix_data: 172.801 [ms]
[OGL LOG][Proc: 0]p: update_non_local_matrix_data: 2.091 [ms]
[OGL LOG][Proc: 0]device_partition: call_init: 0.357 [ms]
[OGL LOG][Proc: 0]p_matrix: call_init: 747.872 [ms]
[OGL LOG][Proc: 0]p_rhs: call_init: 6.278 [ms]
[OGL LOG][Proc: 0]p_solution: call_init: 8.209 [ms]
[OGL LOG][Preconditioner.H:121] Generate preconditioner BJ MaxBlockSize 1
[OGL LOG][Proc: 0]p: init_precond: 18.514 [ms]
[OGL LOG][StoppingCriterion.H:239] Creating stopping criterion with minIter 0 frequency 1
[OGL LOG][Proc: 0]p: generate_solver: 0.13 [ms]
[OGL LOG][Proc: 0]p: solve: 32634 [ms]
[OGL LOG][Proc: 0]p: copy_x_back: 19.38 [ms]
[OGL LOG][lduLduBase.H:330] 
Statistics:
	Time per iteration: 10075 [mu s]
	Time per residual norm calculation: 6372.000000 [mu s]
	Time per iteration and DOF: 0.157422 [ns]
	Retrieve results bandwidth 1.651000 [GByte/s]
[OGL LOG][Proc: 0]p: solve_multi_gpu: 33720.8 [ms]
BJcudaGKOCG:  Solving for p, Initial residual = 1, Final residual = 9.74569e-05, No Iterations 3239
[INFO] SolveP: 155595 [ms]
time step continuity errors : sum local = 2.47225e-09, global = 2.56733e-22, cumulative = 2.56733e-22
[INFO] ContinuityError: 126.322 [ms]
[INFO] CorrectBoundary: 2.053 [ms]
[INFO] PISOStep: 157830 [ms]
[INFO] MatrixAssemblyPI: 1189.91 [ms]
[INFO] AdjustPhi: 49.991 [ms]
[INFO] ConstrainPressure: 0.003 [ms]
[INFO] MatrixAssemblyPII: 368.819 [ms]
[OGL LOG][Proc: 0]: global_index_init: 0.184 [ms]
[OGL LOG][Proc: 0]p_local_coeffs: call_update: 0.001 [ms]
[OGL LOG][Proc: 0]p_non_local_coeffs: call_update: 0 [ms]
[OGL LOG][Proc: 0]p: update_local_matrix_data: 257.423 [ms]
[OGL LOG][Proc: 0]p: update_non_local_matrix_data: 1.992 [ms]
[OGL LOG][Proc: 0]p: regenerate_distributed_matrix: 709.975 [ms]
[OGL LOG][Proc: 0]p_matrix: call_update: 714.711 [ms]
[OGL LOG][Proc: 0]p_rhs: call_update: 4.382 [ms]
[OGL LOG][Preconditioner.H:121] Generate preconditioner BJ MaxBlockSize 1
[OGL LOG][Proc: 0]p: init_precond: 4.783 [ms]
[OGL LOG][StoppingCriterion.H:239] Creating stopping criterion with minIter 1943 frequency 35
[OGL LOG][Proc: 0]p: generate_solver: 0.019 [ms]
[OGL LOG][Proc: 0]p: solve: 24484 [ms]
[OGL LOG][Proc: 0]p: copy_x_back: 19.107 [ms]
[OGL LOG][lduLduBase.H:330] 
Statistics:
	Time per iteration: 7519 [mu s]
	Time per residual norm calculation: 2305.000000 [mu s]
	Time per iteration and DOF: 0.117484 [ns]
	Retrieve results bandwidth 1.674000 [GByte/s]
[OGL LOG][Proc: 0]p: solve_multi_gpu: 25233.3 [ms]
BJcudaGKOCG:  Solving for p, Initial residual = 0.822079, Final residual = 5.79772e-05, No Iterations 3256
[INFO] SolveP: 25533.1 [ms]
time step continuity errors : sum local = 1.77199e-09, global = 3.83655e-22, cumulative = 6.40388e-22
[INFO] ContinuityError: 117.426 [ms]
[INFO] CorrectBoundary: 4.402 [ms]
[INFO] PISOStep: 27691.7 [ms]
[INFO] TimeStep: 191454 [ms]
ExecutionTime = 191.98 s  ClockTime = 194 s

Time = 0.00025

Courant Number mean: 0.0108529 max: 0.437705
[INFO] MatrixAssemblyU: 1124.19 [ms]
DILUPBiCGStab:  Solving for Ux, Initial residual = 0.108167, Final residual = 0.0134443, No Iterations 5
DILUPBiCGStab:  Solving for Uy, Initial residual = 0.484635, Final residual = 0.0521706, No Iterations 5
DILUPBiCGStab:  Solving for Uz, Initial residual = 0.990104, Final residual = 0.11853, No Iterations 5
[INFO] MomentumPredictor: 8332.02 [ms]
[INFO] MatrixAssemblyPI: 1221.84 [ms]
[INFO] AdjustPhi: 50.64 [ms]
[INFO] ConstrainPressure: 0.002 [ms]
[INFO] MatrixAssemblyPII: 370.295 [ms]
[OGL LOG][Proc: 0]: global_index_init: 0.267 [ms]
[OGL LOG][Proc: 0]p_local_coeffs: call_update: 0 [ms]
[OGL LOG][Proc: 0]p_non_local_coeffs: call_update: 0 [ms]
[OGL LOG][Proc: 0]p: update_local_matrix_data: 252.725 [ms]
[OGL LOG][Proc: 0]p: update_non_local_matrix_data: 1.988 [ms]
[OGL LOG][Proc: 0]p: regenerate_distributed_matrix: 703.99 [ms]
[OGL LOG][Proc: 0]p_matrix: call_update: 709.476 [ms]
[OGL LOG][Proc: 0]p_rhs: call_update: 4.508 [ms]
[OGL LOG][Preconditioner.H:121] Generate preconditioner BJ MaxBlockSize 1
[OGL LOG][Proc: 0]p: init_precond: 4.745 [ms]
[OGL LOG][StoppingCriterion.H:239] Creating stopping criterion with minIter 1953 frequency 20
[OGL LOG][Proc: 0]p: generate_solver: 0.018 [ms]
[OGL LOG][Proc: 0]p: solve: 24157.5 [ms]
[OGL LOG][Proc: 0]p: copy_x_back: 18.33 [ms]
[OGL LOG][lduLduBase.H:330] 
Statistics:
	Time per iteration: 7546 [mu s]
	Time per residual norm calculation: 2296.000000 [mu s]
	Time per iteration and DOF: 0.117906 [ns]
	Retrieve results bandwidth 1.745000 [GByte/s]
[OGL LOG][Proc: 0]p: solve_multi_gpu: 24912.2 [ms]
BJcudaGKOCG:  Solving for p, Initial residual = 0.90642, Final residual = 8.24822e-05, No Iterations 3201
[INFO] SolveP: 25209.1 [ms]
time step continuity errors : sum local = 5.80317e-09, global = 4.67525e-22, cumulative = 1.10791e-21
[INFO] ContinuityError: 115.869 [ms]
[INFO] CorrectBoundary: 1.827 [ms]
[INFO] PISOStep: 27422.9 [ms]
[INFO] MatrixAssemblyPI: 1190.95 [ms]
[INFO] AdjustPhi: 81.293 [ms]
[INFO] ConstrainPressure: 0.002 [ms]
[INFO] MatrixAssemblyPII: 373.625 [ms]
[OGL LOG][Proc: 0]: global_index_init: 0.349 [ms]
[OGL LOG][Proc: 0]p_local_coeffs: call_update: 0 [ms]
[OGL LOG][Proc: 0]p_non_local_coeffs: call_update: 0 [ms]
[OGL LOG][Proc: 0]p: update_local_matrix_data: 264.085 [ms]
[OGL LOG][Proc: 0]p: update_non_local_matrix_data: 2.016 [ms]
[OGL LOG][Proc: 0]p: regenerate_distributed_matrix: 705.965 [ms]
[OGL LOG][Proc: 0]p_matrix: call_update: 710.27 [ms]
[OGL LOG][Proc: 0]p_rhs: call_update: 4.064 [ms]
[OGL LOG][Preconditioner.H:121] Generate preconditioner BJ MaxBlockSize 1
[OGL LOG][Proc: 0]p: init_precond: 4.679 [ms]
[OGL LOG][StoppingCriterion.H:239] Creating stopping criterion with minIter 1920 frequency 20
[OGL LOG][Proc: 0]p: generate_solver: 0.014 [ms]
[OGL LOG][Proc: 0]p: solve: 23992.3 [ms]
[OGL LOG][Proc: 0]p: copy_x_back: 18.713 [ms]
[OGL LOG][lduLduBase.H:330] 
Statistics:
	Time per iteration: 7542 [mu s]
	Time per residual norm calculation: 2586.000000 [mu s]
	Time per iteration and DOF: 0.117844 [ns]
	Retrieve results bandwidth 1.710000 [GByte/s]
[OGL LOG][Proc: 0]p: solve_multi_gpu: 24733.3 [ms]
BJcudaGKOCG:  Solving for p, Initial residual = 0.857645, Final residual = 9.38471e-05, No Iterations 3181
[INFO] SolveP: 25039.3 [ms]
time step continuity errors : sum local = 6.72543e-09, global = 3.68244e-22, cumulative = 1.47616e-21
[INFO] ContinuityError: 113.946 [ms]
[INFO] CorrectBoundary: 4.625 [ms]
[INFO] PISOStep: 27249.4 [ms]
[INFO] TimeStep: 64249.1 [ms]
ExecutionTime = 256.1 s  ClockTime = 259 s

Time = 0.000375

Courant Number mean: 0.0169458 max: 0.511446
[INFO] MatrixAssemblyU: 1122.2 [ms]
DILUPBiCGStab:  Solving for Ux, Initial residual = 0.0536848, Final residual = 0.00543522, No Iterations 5
DILUPBiCGStab:  Solving for Uy, Initial residual = 0.261644, Final residual = 0.0262833, No Iterations 5
DILUPBiCGStab:  Solving for Uz, Initial residual = 0.870572, Final residual = 0.086432, No Iterations 5
[INFO] MomentumPredictor: 8422.43 [ms]
[INFO] MatrixAssemblyPI: 1279.5 [ms]
[INFO] AdjustPhi: 68.878 [ms]
[INFO] ConstrainPressure: 0.004 [ms]
[INFO] MatrixAssemblyPII: 398.893 [ms]
[OGL LOG][Proc: 0]: global_index_init: 0.613 [ms]
[OGL LOG][Proc: 0]p_local_coeffs: call_update: 0 [ms]
[OGL LOG][Proc: 0]p_non_local_coeffs: call_update: 0 [ms]
[OGL LOG][Proc: 0]p: update_local_matrix_data: 277.885 [ms]
[OGL LOG][Proc: 0]p: update_non_local_matrix_data: 1.885 [ms]
[OGL LOG][Proc: 0]p: regenerate_distributed_matrix: 708.408 [ms]
[OGL LOG][Proc: 0]p_matrix: call_update: 712.302 [ms]
[OGL LOG][Proc: 0]p_rhs: call_update: 30.453 [ms]
[OGL LOG][Preconditioner.H:121] Generate preconditioner BJ MaxBlockSize 1
[OGL LOG][Proc: 0]p: init_precond: 4.482 [ms]
[OGL LOG][StoppingCriterion.H:239] Creating stopping criterion with minIter 1908 frequency 25
[OGL LOG][Proc: 0]p: generate_solver: 0.017 [ms]
[OGL LOG][Proc: 0]p: solve: 14606.8 [ms]
[OGL LOG][Proc: 0]p: copy_x_back: 18.008 [ms]
[OGL LOG][lduLduBase.H:330] 
Statistics:
	Time per iteration: 7584 [mu s]
	Time per residual norm calculation: 2300.000000 [mu s]
	Time per iteration and DOF: 0.118500 [ns]
	Retrieve results bandwidth 1.776000 [GByte/s]
[OGL LOG][Proc: 0]p: solve_multi_gpu: 15374.1 [ms]
BJcudaGKOCG:  Solving for p, Initial residual = 0.94088, Final residual = 4.09759e-05, No Iterations 1926
[INFO] SolveP: 15700.2 [ms]
time step continuity errors : sum local = 3.85109e-09, global = 6.65984e-22, cumulative = 2.14214e-21
[INFO] ContinuityError: 116.939 [ms]
[INFO] CorrectBoundary: 9.081 [ms]
[INFO] PISOStep: 18016.8 [ms]
[INFO] MatrixAssemblyPI: 1193.65 [ms]
[INFO] AdjustPhi: 91.396 [ms]
[INFO] ConstrainPressure: 0.003 [ms]
[INFO] MatrixAssemblyPII: 374.606 [ms]
[OGL LOG][Proc: 0]: global_index_init: 4.294 [ms]
[OGL LOG][Proc: 0]p_local_coeffs: call_update: 0 [ms]
[OGL LOG][Proc: 0]p_non_local_coeffs: call_update: 0 [ms]
[OGL LOG][Proc: 0]p: update_local_matrix_data: 251.217 [ms]
[OGL LOG][Proc: 0]p: update_non_local_matrix_data: 2.01 [ms]
[OGL LOG][Proc: 0]p: regenerate_distributed_matrix: 702.081 [ms]
[OGL LOG][Proc: 0]p_matrix: call_update: 707.194 [ms]
[OGL LOG][Proc: 0]p_rhs: call_update: 4.6 [ms]
[OGL LOG][Preconditioner.H:121] Generate preconditioner BJ MaxBlockSize 1
[OGL LOG][Proc: 0]p: init_precond: 4.188 [ms]
[OGL LOG][StoppingCriterion.H:239] Creating stopping criterion with minIter 1155 frequency 16
[OGL LOG][Proc: 0]p: generate_solver: 0.014 [ms]
[OGL LOG][Proc: 0]p: solve: 11657.3 [ms]
[OGL LOG][Proc: 0]p: copy_x_back: 18.967 [ms]
[OGL LOG][lduLduBase.H:330] 
Statistics:
	Time per iteration: 7584 [mu s]
	Time per residual norm calculation: 2580.000000 [mu s]
	Time per iteration and DOF: 0.118500 [ns]
	Retrieve results bandwidth 1.687000 [GByte/s]
[OGL LOG][Proc: 0]p: solve_multi_gpu: 12413.5 [ms]
BJcudaGKOCG:  Solving for p, Initial residual = 0.90869, Final residual = 8.84248e-05, No Iterations 1537
[INFO] SolveP: 12709.7 [ms]
time step continuity errors : sum local = 7.83113e-09, global = 3.26552e-22, cumulative = 2.46869e-21
[INFO] ContinuityError: 107.953 [ms]
[INFO] CorrectBoundary: 1.16 [ms]
[INFO] PISOStep: 14951.9 [ms]
[INFO] TimeStep: 42635.7 [ms]
ExecutionTime = 298.63 s  ClockTime = 301 s

Time = 0.0005

Courant Number mean: 0.020555 max: 0.47757
[INFO] MatrixAssemblyU: 1120.37 [ms]
DILUPBiCGStab:  Solving for Ux, Initial residual = 0.0416123, Final residual = 0.00503632, No Iterations 5
DILUPBiCGStab:  Solving for Uy, Initial residual = 0.21384, Final residual = 0.0241566, No Iterations 5
DILUPBiCGStab:  Solving for Uz, Initial residual = 0.78308, Final residual = 0.063642, No Iterations 5
[INFO] MomentumPredictor: 8392.74 [ms]
[INFO] MatrixAssemblyPI: 1274.3 [ms]
[INFO] AdjustPhi: 68.399 [ms]
[INFO] ConstrainPressure: 0.003 [ms]
[INFO] MatrixAssemblyPII: 392.043 [ms]
[OGL LOG][Proc: 0]: global_index_init: 0.178 [ms]
[OGL LOG][Proc: 0]p_local_coeffs: call_update: 0 [ms]
[OGL LOG][Proc: 0]p_non_local_coeffs: call_update: 0 [ms]
[OGL LOG][Proc: 0]p: update_local_matrix_data: 277.827 [ms]
[OGL LOG][Proc: 0]p: update_non_local_matrix_data: 2.033 [ms]
[OGL LOG][Proc: 0]p: regenerate_distributed_matrix: 705.654 [ms]
[OGL LOG][Proc: 0]p_matrix: call_update: 710.02 [ms]
[OGL LOG][Proc: 0]p_rhs: call_update: 4.637 [ms]
[OGL LOG][Preconditioner.H:121] Generate preconditioner BJ MaxBlockSize 1
[OGL LOG][Proc: 0]p: init_precond: 4.701 [ms]
[OGL LOG][StoppingCriterion.H:239] Creating stopping criterion with minIter 922 frequency 17
[OGL LOG][Proc: 0]p: generate_solver: 0.025 [ms]
[OGL LOG][Proc: 0]p: solve: 11528.2 [ms]
[OGL LOG][Proc: 0]p: copy_x_back: 18.714 [ms]
[OGL LOG][lduLduBase.H:330] 
Statistics:
	Time per iteration: 7614 [mu s]
	Time per residual norm calculation: 2597.000000 [mu s]
	Time per iteration and DOF: 0.118969 [ns]
	Retrieve results bandwidth 1.709000 [GByte/s]
[OGL LOG][Proc: 0]p: solve_multi_gpu: 12269.7 [ms]
BJcudaGKOCG:  Solving for p, Initial residual = 0.9375, Final residual = 9.79584e-05, No Iterations 1514
[INFO] SolveP: 12589.9 [ms]
time step continuity errors : sum local = 1.10286e-08, global = 5.64551e-22, cumulative = 3.03324e-21
[INFO] ContinuityError: 116.598 [ms]
[INFO] CorrectBoundary: 4.567 [ms]
[INFO] PISOStep: 14885.4 [ms]
[INFO] MatrixAssemblyPI: 1193.5 [ms]
[INFO] AdjustPhi: 97.809 [ms]
[INFO] ConstrainPressure: 0.003 [ms]
[INFO] MatrixAssemblyPII: 372.597 [ms]
[OGL LOG][Proc: 0]: global_index_init: 1.548 [ms]
[OGL LOG][Proc: 0]p_local_coeffs: call_update: 0 [ms]
[OGL LOG][Proc: 0]p_non_local_coeffs: call_update: 0 [ms]
[OGL LOG][Proc: 0]p: update_local_matrix_data: 255.103 [ms]
[OGL LOG][Proc: 0]p: update_non_local_matrix_data: 2.033 [ms]
[OGL LOG][Proc: 0]p: regenerate_distributed_matrix: 702.158 [ms]
[OGL LOG][Proc: 0]p_matrix: call_update: 706.658 [ms]
[OGL LOG][Proc: 0]p_rhs: call_update: 4.712 [ms]
[OGL LOG][Preconditioner.H:121] Generate preconditioner BJ MaxBlockSize 1
[OGL LOG][Proc: 0]p: init_precond: 4.569 [ms]
[OGL LOG][StoppingCriterion.H:239] Creating stopping criterion with minIter 908 frequency 17
[OGL LOG][Proc: 0]p: generate_solver: 0.014 [ms]
[OGL LOG][Proc: 0]p: solve: 11649 [ms]
[OGL LOG][Proc: 0]p: copy_x_back: 18.235 [ms]
[OGL LOG][lduLduBase.H:330] 
Statistics:
	Time per iteration: 7694 [mu s]
	Time per residual norm calculation: 2588.000000 [mu s]
	Time per iteration and DOF: 0.120219 [ns]
	Retrieve results bandwidth 1.754000 [GByte/s]
[OGL LOG][Proc: 0]p: solve_multi_gpu: 12403.7 [ms]
BJcudaGKOCG:  Solving for p, Initial residual = 0.879877, Final residual = 8.83969e-05, No Iterations 1514
[INFO] SolveP: 12704 [ms]
time step continuity errors : sum local = 9.85178e-09, global = 2.21177e-22, cumulative = 3.25442e-21
[INFO] ContinuityError: 114.761 [ms]
[INFO] CorrectBoundary: 5.182 [ms]
[INFO] PISOStep: 14955.9 [ms]
[INFO] TimeStep: 39474.8 [ms]
ExecutionTime = 338.03 s  ClockTime = 341 s

Time = 0.000625

Courant Number mean: 0.0236274 max: 0.556007
[INFO] MatrixAssemblyU: 1130.26 [ms]
DILUPBiCGStab:  Solving for Ux, Initial residual = 0.0376154, Final residual = 0.00457132, No Iterations 5
DILUPBiCGStab:  Solving for Uy, Initial residual = 0.18463, Final residual = 0.0200864, No Iterations 5
DILUPBiCGStab:  Solving for Uz, Initial residual = 0.755339, Final residual = 0.0548615, No Iterations 5
[INFO] MomentumPredictor: 8386.92 [ms]
[INFO] MatrixAssemblyPI: 1283.5 [ms]
[INFO] AdjustPhi: 68.639 [ms]
[INFO] ConstrainPressure: 0.003 [ms]
[INFO] MatrixAssemblyPII: 393.878 [ms]
[OGL LOG][Proc: 0]: global_index_init: 0.251 [ms]
[OGL LOG][Proc: 0]p_local_coeffs: call_update: 0 [ms]
[OGL LOG][Proc: 0]p_non_local_coeffs: call_update: 0 [ms]
[OGL LOG][Proc: 0]p: update_local_matrix_data: 265.951 [ms]
[OGL LOG][Proc: 0]p: update_non_local_matrix_data: 1.993 [ms]
[OGL LOG][Proc: 0]p: regenerate_distributed_matrix: 705.688 [ms]
[OGL LOG][Proc: 0]p_matrix: call_update: 710.675 [ms]
[OGL LOG][Proc: 0]p_rhs: call_update: 4.862 [ms]
[OGL LOG][Preconditioner.H:121] Generate preconditioner BJ MaxBlockSize 1
[OGL LOG][Proc: 0]p: init_precond: 4.72 [ms]
[OGL LOG][StoppingCriterion.H:239] Creating stopping criterion with minIter 908 frequency 17
[OGL LOG][Proc: 0]p: generate_solver: 0.014 [ms]
[OGL LOG][Proc: 0]p: solve: 22043.4 [ms]
[OGL LOG][Proc: 0]p: copy_x_back: 19.322 [ms]
[OGL LOG][lduLduBase.H:330] 
Statistics:
	Time per iteration: 7624 [mu s]
	Time per residual norm calculation: 2593.000000 [mu s]
	Time per iteration and DOF: 0.119125 [ns]
	Retrieve results bandwidth 1.656000 [GByte/s]
[OGL LOG][Proc: 0]p: solve_multi_gpu: 22787.5 [ms]
BJcudaGKOCG:  Solving for p, Initial residual = 0.954076, Final residual = 8.49152e-05, No Iterations 2891
[INFO] SolveP: 23097.3 [ms]
time step continuity errors : sum local = 1.05602e-08, global = -2.54384e-22, cumulative = 3.00004e-21
[INFO] ContinuityError: 117.161 [ms]
[INFO] CorrectBoundary: 22.265 [ms]
[INFO] PISOStep: 25407.5 [ms]
[INFO] MatrixAssemblyPI: 1198.15 [ms]
[INFO] AdjustPhi: 83.846 [ms]
[INFO] ConstrainPressure: 0.003 [ms]
[INFO] MatrixAssemblyPII: 373.634 [ms]
[OGL LOG][Proc: 0]: global_index_init: 0.202 [ms]
[OGL LOG][Proc: 0]p_local_coeffs: call_update: 0 [ms]
[OGL LOG][Proc: 0]p_non_local_coeffs: call_update: 0 [ms]
[OGL LOG][Proc: 0]p: update_local_matrix_data: 254.331 [ms]
[OGL LOG][Proc: 0]p: update_non_local_matrix_data: 2.025 [ms]
[OGL LOG][Proc: 0]p: regenerate_distributed_matrix: 702.348 [ms]
[OGL LOG][Proc: 0]p_matrix: call_update: 707.423 [ms]
[OGL LOG][Proc: 0]p_rhs: call_update: 4.578 [ms]
[OGL LOG][Preconditioner.H:121] Generate preconditioner BJ MaxBlockSize 1
[OGL LOG][Proc: 0]p: init_precond: 4.272 [ms]
[OGL LOG][StoppingCriterion.H:239] Creating stopping criterion with minIter 1734 frequency 24
[OGL LOG][Proc: 0]p: generate_solver: 0.02 [ms]
[OGL LOG][Proc: 0]p: solve: 21761.2 [ms]
[OGL LOG][Proc: 0]p: copy_x_back: 18.494 [ms]
[OGL LOG][lduLduBase.H:330] 
Statistics:
	Time per iteration: 7553 [mu s]
	Time per residual norm calculation: 2881.000000 [mu s]
	Time per iteration and DOF: 0.118016 [ns]
	Retrieve results bandwidth 1.730000 [GByte/s]
[OGL LOG][Proc: 0]p: solve_multi_gpu: 22517.3 [ms]
BJcudaGKOCG:  Solving for p, Initial residual = 0.915132, Final residual = 8.07905e-05, No Iterations 2881
[INFO] SolveP: 22814.6 [ms]
time step continuity errors : sum local = 9.98797e-09, global = -2.39882e-23, cumulative = 2.97605e-21
[INFO] ContinuityError: 121.88 [ms]
[INFO] CorrectBoundary: 5.769 [ms]
[INFO] PISOStep: 25054.5 [ms]
[INFO] TimeStep: 60101.4 [ms]
ExecutionTime = 398.01 s  ClockTime = 401 s

Time = 0.00075

Courant Number mean: 0.0259662 max: 0.483359
[INFO] MatrixAssemblyU: 1130.06 [ms]
DILUPBiCGStab:  Solving for Ux, Initial residual = 0.0353904, Final residual = 0.00432918, No Iterations 5
DILUPBiCGStab:  Solving for Uy, Initial residual = 0.171309, Final residual = 0.017301, No Iterations 5
DILUPBiCGStab:  Solving for Uz, Initial residual = 0.699837, Final residual = 0.0467339, No Iterations 5
[INFO] MomentumPredictor: 8371.47 [ms]
[INFO] MatrixAssemblyPI: 1269.11 [ms]
[INFO] AdjustPhi: 66.794 [ms]
[INFO] ConstrainPressure: 0.003 [ms]
[INFO] MatrixAssemblyPII: 391.085 [ms]
[OGL LOG][Proc: 0]: global_index_init: 0.831 [ms]
[OGL LOG][Proc: 0]p_local_coeffs: call_update: 0 [ms]
[OGL LOG][Proc: 0]p_non_local_coeffs: call_update: 0 [ms]
[OGL LOG][Proc: 0]p: update_local_matrix_data: 273.627 [ms]
[OGL LOG][Proc: 0]p: update_non_local_matrix_data: 1.972 [ms]
[OGL LOG][Proc: 0]p: regenerate_distributed_matrix: 706.014 [ms]
[OGL LOG][Proc: 0]p_matrix: call_update: 710.632 [ms]
[OGL LOG][Proc: 0]p_rhs: call_update: 5.466 [ms]
[OGL LOG][Preconditioner.H:121] Generate preconditioner BJ MaxBlockSize 1
[OGL LOG][Proc: 0]p: init_precond: 4.28 [ms]
[OGL LOG][StoppingCriterion.H:239] Creating stopping criterion with minIter 1728 frequency 24
[OGL LOG][Proc: 0]p: generate_solver: 0.025 [ms]
[OGL LOG][Proc: 0]p: solve: 23397.5 [ms]
[OGL LOG][Proc: 0]p: copy_x_back: 18.658 [ms]
[OGL LOG][lduLduBase.H:330] 
Statistics:
	Time per iteration: 7554 [mu s]
	Time per residual norm calculation: 2601.000000 [mu s]
	Time per iteration and DOF: 0.118031 [ns]
	Retrieve results bandwidth 1.715000 [GByte/s]
[OGL LOG][Proc: 0]p: solve_multi_gpu: 24139.4 [ms]
BJcudaGKOCG:  Solving for p, Initial residual = 0.951069, Final residual = 8.69077e-05, No Iterations 3097
[INFO] SolveP: 24456.5 [ms]
time step continuity errors : sum local = 1.24834e-08, global = 5.91476e-22, cumulative = 3.56752e-21
[INFO] ContinuityError: 120.769 [ms]
[INFO] CorrectBoundary: 1.579 [ms]
[INFO] PISOStep: 26751 [ms]
[INFO] MatrixAssemblyPI: 1207.82 [ms]
[INFO] AdjustPhi: 91.456 [ms]
[INFO] ConstrainPressure: 0.003 [ms]
[INFO] MatrixAssemblyPII: 371.548 [ms]
[OGL LOG][Proc: 0]: global_index_init: 0.129 [ms]
[OGL LOG][Proc: 0]p_local_coeffs: call_update: 0 [ms]
[OGL LOG][Proc: 0]p_non_local_coeffs: call_update: 0 [ms]
[OGL LOG][Proc: 0]p: update_local_matrix_data: 250.394 [ms]
[OGL LOG][Proc: 0]p: update_non_local_matrix_data: 1.976 [ms]
[OGL LOG][Proc: 0]p: regenerate_distributed_matrix: 703.564 [ms]
[OGL LOG][Proc: 0]p_matrix: call_update: 709.436 [ms]
[OGL LOG][Proc: 0]p_rhs: call_update: 4.638 [ms]
[OGL LOG][Preconditioner.H:121] Generate preconditioner BJ MaxBlockSize 1
[OGL LOG][Proc: 0]p: init_precond: 4.38 [ms]
[OGL LOG][StoppingCriterion.H:239] Creating stopping criterion with minIter 1858 frequency 24
[OGL LOG][Proc: 0]p: generate_solver: 0.014 [ms]
[OGL LOG][Proc: 0]p: solve: 23196.5 [ms]
[OGL LOG][Proc: 0]p: copy_x_back: 19.004 [ms]
[OGL LOG][lduLduBase.H:330] 
Statistics:
	Time per iteration: 7548 [mu s]
	Time per residual norm calculation: 2884.000000 [mu s]
	Time per iteration and DOF: 0.117938 [ns]
	Retrieve results bandwidth 1.683000 [GByte/s]
[OGL LOG][Proc: 0]p: solve_multi_gpu: 23962.1 [ms]
BJcudaGKOCG:  Solving for p, Initial residual = 0.891076, Final residual = 9.98431e-05, No Iterations 3073
[INFO] SolveP: 24254 [ms]
time step continuity errors : sum local = 1.45679e-08, global = 4.95368e-22, cumulative = 4.06289e-21
[INFO] ContinuityError: 117.066 [ms]
[INFO] CorrectBoundary: 3.73 [ms]
[INFO] PISOStep: 26508.2 [ms]
[INFO] TimeStep: 62883.7 [ms]
ExecutionTime = 460.77 s  ClockTime = 464 s

Time = 0.000875

Courant Number mean: 0.0281639 max: 0.612289
[INFO] MatrixAssemblyU: 1136.19 [ms]
DILUPBiCGStab:  Solving for Ux, Initial residual = 0.0350303, Final residual = 0.00413877, No Iterations 5
DILUPBiCGStab:  Solving for Uy, Initial residual = 0.176129, Final residual = 0.0164156, No Iterations 5
DILUPBiCGStab:  Solving for Uz, Initial residual = 0.693545, Final residual = 0.0418041, No Iterations 5
[INFO] MomentumPredictor: 8385.04 [ms]
[INFO] MatrixAssemblyPI: 1273.18 [ms]
[INFO] AdjustPhi: 65.995 [ms]
[INFO] ConstrainPressure: 0.003 [ms]
[INFO] MatrixAssemblyPII: 390.154 [ms]
[OGL LOG][Proc: 0]: global_index_init: 0.358 [ms]
[OGL LOG][Proc: 0]p_local_coeffs: call_update: 0 [ms]
[OGL LOG][Proc: 0]p_non_local_coeffs: call_update: 0 [ms]
[OGL LOG][Proc: 0]p: update_local_matrix_data: 266.214 [ms]
[OGL LOG][Proc: 0]p: update_non_local_matrix_data: 1.956 [ms]
[OGL LOG][Proc: 0]p: regenerate_distributed_matrix: 704.429 [ms]
[OGL LOG][Proc: 0]p_matrix: call_update: 709.098 [ms]
[OGL LOG][Proc: 0]p_rhs: call_update: 4.574 [ms]
[OGL LOG][Preconditioner.H:121] Generate preconditioner BJ MaxBlockSize 1
[OGL LOG][Proc: 0]p: init_precond: 4.721 [ms]
[OGL LOG][StoppingCriterion.H:239] Creating stopping criterion with minIter 1843 frequency 24
[OGL LOG][Proc: 0]p: generate_solver: 0.017 [ms]
[OGL LOG][Proc: 0]p: solve: 23162.4 [ms]
[OGL LOG][Proc: 0]p: copy_x_back: 19.217 [ms]
[OGL LOG][lduLduBase.H:330] 
Statistics:
	Time per iteration: 7537 [mu s]
	Time per residual norm calculation: 2594.000000 [mu s]
	Time per iteration and DOF: 0.117766 [ns]
	Retrieve results bandwidth 1.665000 [GByte/s]
[OGL LOG][Proc: 0]p: solve_multi_gpu: 23911.1 [ms]
BJcudaGKOCG:  Solving for p, Initial residual = 0.962083, Final residual = 9.59808e-05, No Iterations 3073
[INFO] SolveP: 24220 [ms]
time step continuity errors : sum local = 1.56207e-08, global = 6.41398e-22, cumulative = 4.70429e-21
[INFO] ContinuityError: 124.069 [ms]
[INFO] CorrectBoundary: 6.133 [ms]
[INFO] PISOStep: 26521.2 [ms]
[INFO] MatrixAssemblyPI: 1197.74 [ms]
[INFO] AdjustPhi: 101.918 [ms]
[INFO] ConstrainPressure: 0.003 [ms]
[INFO] MatrixAssemblyPII: 376.382 [ms]
[OGL LOG][Proc: 0]: global_index_init: 0.292 [ms]
[OGL LOG][Proc: 0]p_local_coeffs: call_update: 0 [ms]
[OGL LOG][Proc: 0]p_non_local_coeffs: call_update: 0 [ms]
[OGL LOG][Proc: 0]p: update_local_matrix_data: 247.559 [ms]
[OGL LOG][Proc: 0]p: update_non_local_matrix_data: 2.064 [ms]
[OGL LOG][Proc: 0]p: regenerate_distributed_matrix: 701.447 [ms]
[OGL LOG][Proc: 0]p_matrix: call_update: 704.002 [ms]
[OGL LOG][Proc: 0]p_rhs: call_update: 6.75 [ms]
[OGL LOG][Preconditioner.H:121] Generate preconditioner BJ MaxBlockSize 1
[OGL LOG][Proc: 0]p: init_precond: 4.415 [ms]
[OGL LOG][StoppingCriterion.H:239] Creating stopping criterion with minIter 1843 frequency 24
[OGL LOG][Proc: 0]p: generate_solver: 0.014 [ms]
[OGL LOG][Proc: 0]p: solve: 23207.4 [ms]
[OGL LOG][Proc: 0]p: copy_x_back: 18.275 [ms]
[OGL LOG][lduLduBase.H:330] 
Statistics:
	Time per iteration: 7552 [mu s]
	Time per residual norm calculation: 2895.000000 [mu s]
	Time per iteration and DOF: 0.118000 [ns]
	Retrieve results bandwidth 1.751000 [GByte/s]
[OGL LOG][Proc: 0]p: solve_multi_gpu: 23971.9 [ms]
BJcudaGKOCG:  Solving for p, Initial residual = 0.917577, Final residual = 9.21394e-05, No Iterations 3073
[INFO] SolveP: 24262.1 [ms]
time step continuity errors : sum local = 1.49415e-08, global = 5.19011e-22, cumulative = 5.2233e-21
[INFO] ContinuityError: 117.458 [ms]
[INFO] CorrectBoundary: 4.268 [ms]
[INFO] PISOStep: 26517 [ms]
[INFO] TimeStep: 62680.9 [ms]
ExecutionTime = 523.33 s  ClockTime = 526 s

Time = 0.001

Courant Number mean: 0.0299119 max: 0.491014
[INFO] MatrixAssemblyU: 1139.49 [ms]
DILUPBiCGStab:  Solving for Ux, Initial residual = 0.0361347, Final residual = 0.00400344, No Iterations 5
DILUPBiCGStab:  Solving for Uy, Initial residual = 0.169692, Final residual = 0.0142256, No Iterations 5
DILUPBiCGStab:  Solving for Uz, Initial residual = 0.680602, Final residual = 0.0394696, No Iterations 5
[INFO] MomentumPredictor: 8378.69 [ms]
[INFO] MatrixAssemblyPI: 1264.78 [ms]
[INFO] AdjustPhi: 66.079 [ms]
[INFO] ConstrainPressure: 0.003 [ms]
[INFO] MatrixAssemblyPII: 390.029 [ms]
[OGL LOG][Proc: 0]: global_index_init: 0.11 [ms]
[OGL LOG][Proc: 0]p_local_coeffs: call_update: 0 [ms]
[OGL LOG][Proc: 0]p_non_local_coeffs: call_update: 0 [ms]
[OGL LOG][Proc: 0]p: update_local_matrix_data: 262.493 [ms]
[OGL LOG][Proc: 0]p: update_non_local_matrix_data: 2.018 [ms]
[OGL LOG][Proc: 0]p: regenerate_distributed_matrix: 703.569 [ms]
[OGL LOG][Proc: 0]p_matrix: call_update: 708.904 [ms]
[OGL LOG][Proc: 0]p_rhs: call_update: 4.332 [ms]
[OGL LOG][Preconditioner.H:121] Generate preconditioner BJ MaxBlockSize 1
[OGL LOG][Proc: 0]p: init_precond: 4.13 [ms]
[OGL LOG][StoppingCriterion.H:239] Creating stopping criterion with minIter 1843 frequency 24
[OGL LOG][Proc: 0]p: generate_solver: 0.016 [ms]
[OGL LOG][Proc: 0]p: solve: 23177.3 [ms]
[OGL LOG][Proc: 0]p: copy_x_back: 18.925 [ms]
[OGL LOG][lduLduBase.H:330] 
Statistics:
	Time per iteration: 7542 [mu s]
	Time per residual norm calculation: 3028.000000 [mu s]
	Time per iteration and DOF: 0.117844 [ns]
	Retrieve results bandwidth 1.690000 [GByte/s]
[OGL LOG][Proc: 0]p: solve_multi_gpu: 23918.4 [ms]
BJcudaGKOCG:  Solving for p, Initial residual = 0.960002, Final residual = 8.73842e-05, No Iterations 3073
[INFO] SolveP: 24222.6 [ms]
time step continuity errors : sum local = 1.63701e-08, global = 5.81815e-22, cumulative = 5.80512e-21
[INFO] ContinuityError: 121.816 [ms]
[INFO] CorrectBoundary: 1.592 [ms]
[INFO] PISOStep: 26512.6 [ms]
[INFO] MatrixAssemblyPI: 1193.96 [ms]
[INFO] AdjustPhi: 92.995 [ms]
[INFO] ConstrainPressure: 0.003 [ms]
[INFO] MatrixAssemblyPII: 375.849 [ms]
[OGL LOG][Proc: 0]: global_index_init: 0.172 [ms]
[OGL LOG][Proc: 0]p_local_coeffs: call_update: 0 [ms]
[OGL LOG][Proc: 0]p_non_local_coeffs: call_update: 0 [ms]
[OGL LOG][Proc: 0]p: update_local_matrix_data: 249.339 [ms]
[OGL LOG][Proc: 0]p: update_non_local_matrix_data: 2.06 [ms]
[OGL LOG][Proc: 0]p: regenerate_distributed_matrix: 702.735 [ms]
[OGL LOG][Proc: 0]p_matrix: call_update: 706.555 [ms]
[OGL LOG][Proc: 0]p_rhs: call_update: 6.487 [ms]
[OGL LOG][Preconditioner.H:121] Generate preconditioner BJ MaxBlockSize 1
[OGL LOG][Proc: 0]p: init_precond: 4.128 [ms]
[OGL LOG][StoppingCriterion.H:239] Creating stopping criterion with minIter 1843 frequency 24
[OGL LOG][Proc: 0]p: generate_solver: 0.018 [ms]
[OGL LOG][Proc: 0]p: solve: 23208.2 [ms]
[OGL LOG][Proc: 0]p: copy_x_back: 18.877 [ms]
[OGL LOG][lduLduBase.H:330] 
Statistics:
	Time per iteration: 7552 [mu s]
	Time per residual norm calculation: 2292.000000 [mu s]
	Time per iteration and DOF: 0.118000 [ns]
	Retrieve results bandwidth 1.695000 [GByte/s]
[OGL LOG][Proc: 0]p: solve_multi_gpu: 23971.5 [ms]
BJcudaGKOCG:  Solving for p, Initial residual = 0.898073, Final residual = 8.62881e-05, No Iterations 3073
[INFO] SolveP: 24266.7 [ms]
time step continuity errors : sum local = 1.64027e-08, global = 3.89463e-22, cumulative = 6.19458e-21
[INFO] ContinuityError: 116.966 [ms]
[INFO] CorrectBoundary: 1.536 [ms]
[INFO] PISOStep: 26507.8 [ms]
[INFO] TimeStep: 62660.8 [ms]
ExecutionTime = 585.87 s  ClockTime = 589 s

Time = 0.001125

Courant Number mean: 0.0317147 max: 0.695869
[INFO] MatrixAssemblyU: 1142.8 [ms]
DILUPBiCGStab:  Solving for Ux, Initial residual = 0.0373554, Final residual = 0.00378615, No Iterations 5
DILUPBiCGStab:  Solving for Uy, Initial residual = 0.18652, Final residual = 0.0146578, No Iterations 5
DILUPBiCGStab:  Solving for Uz, Initial residual = 0.69121, Final residual = 0.0374979, No Iterations 5
[INFO] MomentumPredictor: 8382.74 [ms]
[INFO] MatrixAssemblyPI: 1261.03 [ms]
[INFO] AdjustPhi: 65.556 [ms]
[INFO] ConstrainPressure: 0.003 [ms]
[INFO] MatrixAssemblyPII: 387.893 [ms]
[OGL LOG][Proc: 0]: global_index_init: 0.203 [ms]
[OGL LOG][Proc: 0]p_local_coeffs: call_update: 0 [ms]
[OGL LOG][Proc: 0]p_non_local_coeffs: call_update: 0 [ms]
[OGL LOG][Proc: 0]p: update_local_matrix_data: 271.145 [ms]
[OGL LOG][Proc: 0]p: update_non_local_matrix_data: 2.007 [ms]
[OGL LOG][Proc: 0]p: regenerate_distributed_matrix: 707.021 [ms]
[OGL LOG][Proc: 0]p_matrix: call_update: 711.803 [ms]
[OGL LOG][Proc: 0]p_rhs: call_update: 4.89 [ms]
[OGL LOG][Preconditioner.H:121] Generate preconditioner BJ MaxBlockSize 1
[OGL LOG][Proc: 0]p: init_precond: 3.507 [ms]
[OGL LOG][StoppingCriterion.H:239] Creating stopping criterion with minIter 1843 frequency 20
[OGL LOG][Proc: 0]p: generate_solver: 0.015 [ms]
[OGL LOG][Proc: 0]p: solve: 23272 [ms]
[OGL LOG][Proc: 0]p: copy_x_back: 20.069 [ms]
[OGL LOG][lduLduBase.H:330] 
Statistics:
	Time per iteration: 7553 [mu s]
	Time per residual norm calculation: 2581.000000 [mu s]
	Time per iteration and DOF: 0.118016 [ns]
	Retrieve results bandwidth 1.594000 [GByte/s]
[OGL LOG][Proc: 0]p: solve_multi_gpu: 24017.4 [ms]
BJcudaGKOCG:  Solving for p, Initial residual = 0.967958, Final residual = 7.75627e-05, No Iterations 3081
[INFO] SolveP: 24329.6 [ms]
time step continuity errors : sum local = 1.66698e-08, global = 1.21243e-22, cumulative = 6.31582e-21
[INFO] ContinuityError: 118.58 [ms]
[INFO] CorrectBoundary: 2.253 [ms]
[INFO] PISOStep: 26612.3 [ms]
[INFO] MatrixAssemblyPI: 1238.28 [ms]
[INFO] AdjustPhi: 66.522 [ms]
[INFO] ConstrainPressure: 0.003 [ms]
[INFO] MatrixAssemblyPII: 386.774 [ms]
[OGL LOG][Proc: 0]: global_index_init: 0.048 [ms]
[OGL LOG][Proc: 0]p_local_coeffs: call_update: 0 [ms]
[OGL LOG][Proc: 0]p_non_local_coeffs: call_update: 0 [ms]
[OGL LOG][Proc: 0]p: update_local_matrix_data: 259.47 [ms]
[OGL LOG][Proc: 0]p: update_non_local_matrix_data: 2.031 [ms]
[OGL LOG][Proc: 0]p: regenerate_distributed_matrix: 701.717 [ms]
[OGL LOG][Proc: 0]p_matrix: call_update: 706.717 [ms]
[OGL LOG][Proc: 0]p_rhs: call_update: 5.194 [ms]
[OGL LOG][Preconditioner.H:121] Generate preconditioner BJ MaxBlockSize 1
[OGL LOG][Proc: 0]p: init_precond: 4.1 [ms]
[OGL LOG][StoppingCriterion.H:239] Creating stopping criterion with minIter 1848 frequency 24
[OGL LOG][Proc: 0]p: generate_solver: 0.022 [ms]
[OGL LOG][Proc: 0]p: solve: 23163.7 [ms]
[OGL LOG][Proc: 0]p: copy_x_back: 20.539 [ms]
[OGL LOG][lduLduBase.H:330] 
Statistics:
	Time per iteration: 7537 [mu s]
	Time per residual norm calculation: 2591.000000 [mu s]
	Time per iteration and DOF: 0.117766 [ns]
	Retrieve results bandwidth 1.558000 [GByte/s]
[OGL LOG][Proc: 0]p: solve_multi_gpu: 23916.1 [ms]
BJcudaGKOCG:  Solving for p, Initial residual = 0.918709, Final residual = 8.2169e-05, No Iterations 3073
[INFO] SolveP: 24216.4 [ms]
time step continuity errors : sum local = 1.76367e-08, global = 6.24683e-22, cumulative = 6.94051e-21
[INFO] ContinuityError: 128.884 [ms]
[INFO] CorrectBoundary: 1.18 [ms]
[INFO] PISOStep: 26491.5 [ms]
[INFO] TimeStep: 62752.6 [ms]
ExecutionTime = 648.51 s  ClockTime = 652 s

Time = 0.00125

Courant Number mean: 0.0331287 max: 0.507093
[INFO] MatrixAssemblyU: 1135.85 [ms]
DILUPBiCGStab:  Solving for Ux, Initial residual = 0.0407129, Final residual = 0.00385356, No Iterations 5
DILUPBiCGStab:  Solving for Uy, Initial residual = 0.185275, Final residual = 0.0129671, No Iterations 5
DILUPBiCGStab:  Solving for Uz, Initial residual = 0.691769, Final residual = 0.0364989, No Iterations 5
[INFO] MomentumPredictor: 8370.05 [ms]
[INFO] MatrixAssemblyPI: 1267.7 [ms]
[INFO] AdjustPhi: 66.008 [ms]
[INFO] ConstrainPressure: 0.003 [ms]
[INFO] MatrixAssemblyPII: 390.042 [ms]
[OGL LOG][Proc: 0]: global_index_init: 0.15 [ms]
[OGL LOG][Proc: 0]p_local_coeffs: call_update: 0 [ms]
[OGL LOG][Proc: 0]p_non_local_coeffs: call_update: 0 [ms]
[OGL LOG][Proc: 0]p: update_local_matrix_data: 265.136 [ms]
[OGL LOG][Proc: 0]p: update_non_local_matrix_data: 1.969 [ms]
[OGL LOG][Proc: 0]p: regenerate_distributed_matrix: 704.218 [ms]
[OGL LOG][Proc: 0]p_matrix: call_update: 712.06 [ms]
[OGL LOG][Proc: 0]p_rhs: call_update: 10.089 [ms]
[OGL LOG][Preconditioner.H:121] Generate preconditioner BJ MaxBlockSize 1
[OGL LOG][Proc: 0]p: init_precond: 7.785 [ms]
[OGL LOG][StoppingCriterion.H:239] Creating stopping criterion with minIter 1843 frequency 24
[OGL LOG][Proc: 0]p: generate_solver: 0.023 [ms]
[OGL LOG][Proc: 0]p: solve: 23110.8 [ms]
[OGL LOG][Proc: 0]p: copy_x_back: 18.616 [ms]
[OGL LOG][lduLduBase.H:330] 
Statistics:
	Time per iteration: 7520 [mu s]
	Time per residual norm calculation: 2884.000000 [mu s]
	Time per iteration and DOF: 0.117500 [ns]
	Retrieve results bandwidth 1.718000 [GByte/s]
[OGL LOG][Proc: 0]p: solve_multi_gpu: 23865.2 [ms]
BJcudaGKOCG:  Solving for p, Initial residual = 0.967306, Final residual = 8.49435e-05, No Iterations 3073
[INFO] SolveP: 24176.6 [ms]
time step continuity errors : sum local = 2.12506e-08, global = 1.57995e-22, cumulative = 7.0985e-21
[INFO] ContinuityError: 116.95 [ms]
[INFO] CorrectBoundary: 1.742 [ms]
[INFO] PISOStep: 26472.2 [ms]
[INFO] MatrixAssemblyPI: 1239.72 [ms]
[INFO] AdjustPhi: 67.293 [ms]
[INFO] ConstrainPressure: 0.003 [ms]
[INFO] MatrixAssemblyPII: 387.157 [ms]
[OGL LOG][Proc: 0]: global_index_init: 0.02 [ms]
[OGL LOG][Proc: 0]p_local_coeffs: call_update: 0 [ms]
[OGL LOG][Proc: 0]p_non_local_coeffs: call_update: 0 [ms]
[OGL LOG][Proc: 0]p: update_local_matrix_data: 264.994 [ms]
[OGL LOG][Proc: 0]p: update_non_local_matrix_data: 2.025 [ms]
[OGL LOG][Proc: 0]p: regenerate_distributed_matrix: 704.517 [ms]
[OGL LOG][Proc: 0]p_matrix: call_update: 706.616 [ms]
[OGL LOG][Proc: 0]p_rhs: call_update: 6.36 [ms]
[OGL LOG][Preconditioner.H:121] Generate preconditioner BJ MaxBlockSize 1
[OGL LOG][Proc: 0]p: init_precond: 4.095 [ms]
[OGL LOG][StoppingCriterion.H:239] Creating stopping criterion with minIter 1843 frequency 24
[OGL LOG][Proc: 0]p: generate_solver: 0.016 [ms]
[OGL LOG][Proc: 0]p: solve: 23176.5 [ms]
[OGL LOG][Proc: 0]p: copy_x_back: 19.807 [ms]
[OGL LOG][lduLduBase.H:330] 
Statistics:
	Time per iteration: 7541 [mu s]
	Time per residual norm calculation: 2586.000000 [mu s]
	Time per iteration and DOF: 0.117828 [ns]
	Retrieve results bandwidth 1.615000 [GByte/s]
[OGL LOG][Proc: 0]p: solve_multi_gpu: 23926.4 [ms]
BJcudaGKOCG:  Solving for p, Initial residual = 0.903754, Final residual = 7.93589e-05, No Iterations 3073
[INFO] SolveP: 24232.6 [ms]
time step continuity errors : sum local = 2.01191e-08, global = 4.30712e-22, cumulative = 7.52921e-21
[INFO] ContinuityError: 124.396 [ms]
[INFO] CorrectBoundary: 3.94 [ms]
[INFO] PISOStep: 26498.3 [ms]
[INFO] TimeStep: 62599 [ms]
ExecutionTime = 710.97 s  ClockTime = 714 s

Time = 0.001375

Courant Number mean: 0.0347271 max: 0.825406
[INFO] MatrixAssemblyU: 1108.02 [ms]
DILUPBiCGStab:  Solving for Ux, Initial residual = 0.0434377, Final residual = 0.00368422, No Iterations 5
DILUPBiCGStab:  Solving for Uy, Initial residual = 0.208905, Final residual = 0.0139919, No Iterations 5
DILUPBiCGStab:  Solving for Uz, Initial residual = 0.705286, Final residual = 0.0358288, No Iterations 5
[INFO] MomentumPredictor: 8396.16 [ms]
[INFO] MatrixAssemblyPI: 1237.82 [ms]
[INFO] AdjustPhi: 85.357 [ms]
[INFO] ConstrainPressure: 0.003 [ms]
[INFO] MatrixAssemblyPII: 368.598 [ms]
[OGL LOG][Proc: 0]: global_index_init: 0.022 [ms]
[OGL LOG][Proc: 0]p_local_coeffs: call_update: 0 [ms]
[OGL LOG][Proc: 0]p_non_local_coeffs: call_update: 0 [ms]
[OGL LOG][Proc: 0]p: update_local_matrix_data: 254.551 [ms]
[OGL LOG][Proc: 0]p: update_non_local_matrix_data: 2.06 [ms]
[OGL LOG][Proc: 0]p: regenerate_distributed_matrix: 702.598 [ms]
[OGL LOG][Proc: 0]p_matrix: call_update: 707.489 [ms]
[OGL LOG][Proc: 0]p_rhs: call_update: 4.683 [ms]
[OGL LOG][Preconditioner.H:121] Generate preconditioner BJ MaxBlockSize 1
[OGL LOG][Proc: 0]p: init_precond: 4.669 [ms]
[OGL LOG][StoppingCriterion.H:239] Creating stopping criterion with minIter 1843 frequency 24
[OGL LOG][Proc: 0]p: generate_solver: 0.021 [ms]
[OGL LOG][Proc: 0]p: solve: 23062.9 [ms]
[OGL LOG][Proc: 0]p: copy_x_back: 19.503 [ms]
[OGL LOG][lduLduBase.H:330] 
Statistics:
	Time per iteration: 7505 [mu s]
	Time per residual norm calculation: 2887.000000 [mu s]
	Time per iteration and DOF: 0.117266 [ns]
	Retrieve results bandwidth 1.640000 [GByte/s]
[OGL LOG][Proc: 0]p: solve_multi_gpu: 23824.7 [ms]
BJcudaGKOCG:  Solving for p, Initial residual = 0.972953, Final residual = 8.35622e-05, No Iterations 3073
[INFO] SolveP: 24124.3 [ms]
time step continuity errors : sum local = 2.42816e-08, global = 1.80477e-22, cumulative = 7.70969e-21
[INFO] ContinuityError: 115.806 [ms]
[INFO] CorrectBoundary: 8.389 [ms]
[INFO] PISOStep: 26403.8 [ms]
[INFO] MatrixAssemblyPI: 1237.81 [ms]
[INFO] AdjustPhi: 67.606 [ms]
[INFO] ConstrainPressure: 0.003 [ms]
[INFO] MatrixAssemblyPII: 390.949 [ms]
[OGL LOG][Proc: 0]: global_index_init: 0.55 [ms]
[OGL LOG][Proc: 0]p_local_coeffs: call_update: 0 [ms]
[OGL LOG][Proc: 0]p_non_local_coeffs: call_update: 0 [ms]
[OGL LOG][Proc: 0]p: update_local_matrix_data: 276.693 [ms]
[OGL LOG][Proc: 0]p: update_non_local_matrix_data: 1.979 [ms]
[OGL LOG][Proc: 0]p: regenerate_distributed_matrix: 706.589 [ms]
[OGL LOG][Proc: 0]p_matrix: call_update: 711.062 [ms]
[OGL LOG][Proc: 0]p_rhs: call_update: 4.879 [ms]
[OGL LOG][Preconditioner.H:121] Generate preconditioner BJ MaxBlockSize 1
[OGL LOG][Proc: 0]p: init_precond: 4.609 [ms]
[OGL LOG][StoppingCriterion.H:239] Creating stopping criterion with minIter 1843 frequency 24
[OGL LOG][Proc: 0]p: generate_solver: 0.016 [ms]
[OGL LOG][Proc: 0]p: solve: 23190.5 [ms]
[OGL LOG][Proc: 0]p: copy_x_back: 18.385 [ms]
[OGL LOG][lduLduBase.H:330] 
Statistics:
	Time per iteration: 7546 [mu s]
	Time per residual norm calculation: 2594.000000 [mu s]
	Time per iteration and DOF: 0.117906 [ns]
	Retrieve results bandwidth 1.740000 [GByte/s]
[OGL LOG][Proc: 0]p: solve_multi_gpu: 23931.5 [ms]
BJcudaGKOCG:  Solving for p, Initial residual = 0.919534, Final residual = 7.91505e-05, No Iterations 3073
[INFO] SolveP: 24252.5 [ms]
time step continuity errors : sum local = 2.30147e-08, global = 5.59326e-22, cumulative = 8.26902e-21
[INFO] ContinuityError: 120.736 [ms]
[INFO] CorrectBoundary: 2.869 [ms]
[INFO] PISOStep: 26515.8 [ms]
[INFO] TimeStep: 62548.8 [ms]
ExecutionTime = 773.4 s  ClockTime = 777 s

Time = 0.0015

Courant Number mean: 0.0359269 max: 0.5971
[INFO] MatrixAssemblyU: 1112.01 [ms]
DILUPBiCGStab:  Solving for Ux, Initial residual = 0.0488665, Final residual = 0.00389046, No Iterations 5
DILUPBiCGStab:  Solving for Uy, Initial residual = 0.213185, Final residual = 0.0128575, No Iterations 5
DILUPBiCGStab:  Solving for Uz, Initial residual = 0.709206, Final residual = 0.0354363, No Iterations 5
[INFO] MomentumPredictor: 8413.91 [ms]
[INFO] MatrixAssemblyPI: 1233.31 [ms]
[INFO] AdjustPhi: 85.511 [ms]
[INFO] ConstrainPressure: 0.003 [ms]
[INFO] MatrixAssemblyPII: 367.71 [ms]
[OGL LOG][Proc: 0]: global_index_init: 0.387 [ms]
[OGL LOG][Proc: 0]p_local_coeffs: call_update: 0 [ms]
[OGL LOG][Proc: 0]p_non_local_coeffs: call_update: 0 [ms]
[OGL LOG][Proc: 0]p: update_local_matrix_data: 252.751 [ms]
[OGL LOG][Proc: 0]p: update_non_local_matrix_data: 2.19 [ms]
[OGL LOG][Proc: 0]p: regenerate_distributed_matrix: 701.892 [ms]
[OGL LOG][Proc: 0]p_matrix: call_update: 707.118 [ms]
[OGL LOG][Proc: 0]p_rhs: call_update: 4.339 [ms]
[OGL LOG][Preconditioner.H:121] Generate preconditioner BJ MaxBlockSize 1
[OGL LOG][Proc: 0]p: init_precond: 3.289 [ms]
[OGL LOG][StoppingCriterion.H:239] Creating stopping criterion with minIter 1843 frequency 24
[OGL LOG][Proc: 0]p: generate_solver: 0.019 [ms]
[OGL LOG][Proc: 0]p: solve: 23060.2 [ms]
[OGL LOG][Proc: 0]p: copy_x_back: 18.905 [ms]
[OGL LOG][lduLduBase.H:330] 
Statistics:
	Time per iteration: 7504 [mu s]
	Time per residual norm calculation: 2589.000000 [mu s]
	Time per iteration and DOF: 0.117250 [ns]
	Retrieve results bandwidth 1.692000 [GByte/s]
[OGL LOG][Proc: 0]p: solve_multi_gpu: 23813.4 [ms]
BJcudaGKOCG:  Solving for p, Initial residual = 0.973191, Final residual = 8.33228e-05, No Iterations 3073
[INFO] SolveP: 24107.4 [ms]
time step continuity errors : sum local = 2.83953e-08, global = 4.60714e-22, cumulative = 8.72973e-21
[INFO] ContinuityError: 120.879 [ms]
[INFO] CorrectBoundary: 3.778 [ms]
[INFO] PISOStep: 26387.3 [ms]
[INFO] MatrixAssemblyPI: 1235.32 [ms]
[INFO] AdjustPhi: 67.095 [ms]
[INFO] ConstrainPressure: 0.003 [ms]
[INFO] MatrixAssemblyPII: 391.772 [ms]
[OGL LOG][Proc: 0]: global_index_init: 0.875 [ms]
[OGL LOG][Proc: 0]p_local_coeffs: call_update: 0 [ms]
[OGL LOG][Proc: 0]p_non_local_coeffs: call_update: 0 [ms]
[OGL LOG][Proc: 0]p: update_local_matrix_data: 278.924 [ms]
[OGL LOG][Proc: 0]p: update_non_local_matrix_data: 1.954 [ms]
[OGL LOG][Proc: 0]p: regenerate_distributed_matrix: 705.172 [ms]
[OGL LOG][Proc: 0]p_matrix: call_update: 709.563 [ms]
[OGL LOG][Proc: 0]p_rhs: call_update: 6.238 [ms]
[OGL LOG][Preconditioner.H:121] Generate preconditioner BJ MaxBlockSize 1
[OGL LOG][Proc: 0]p: init_precond: 4.078 [ms]
[OGL LOG][StoppingCriterion.H:239] Creating stopping criterion with minIter 1843 frequency 24
[OGL LOG][Proc: 0]p: generate_solver: 0.017 [ms]
[OGL LOG][Proc: 0]p: solve: 23063.1 [ms]
[OGL LOG][Proc: 0]p: copy_x_back: 18.924 [ms]
[OGL LOG][lduLduBase.H:330] 
Statistics:
	Time per iteration: 7505 [mu s]
	Time per residual norm calculation: 2595.000000 [mu s]
	Time per iteration and DOF: 0.117266 [ns]
	Retrieve results bandwidth 1.690000 [GByte/s]
[OGL LOG][Proc: 0]p: solve_multi_gpu: 23804.6 [ms]
BJcudaGKOCG:  Solving for p, Initial residual = 0.908649, Final residual = 7.77664e-05, No Iterations 3073
[INFO] SolveP: 24127.7 [ms]
time step continuity errors : sum local = 2.68227e-08, global = 1.0639e-21, cumulative = 9.79363e-21
[INFO] ContinuityError: 121.24 [ms]
[INFO] CorrectBoundary: 5.392 [ms]
[INFO] PISOStep: 26390.5 [ms]
[INFO] TimeStep: 62426.4 [ms]
ExecutionTime = 835.71 s  ClockTime = 839 s

Time = 0.001625

Courant Number mean: 0.0374212 max: 1.14729
[INFO] MatrixAssemblyU: 1109.26 [ms]
DILUPBiCGStab:  Solving for Ux, Initial residual = 0.0534604, Final residual = 0.00382762, No Iterations 5
DILUPBiCGStab:  Solving for Uy, Initial residual = 0.241506, Final residual = 0.0141273, No Iterations 5
DILUPBiCGStab:  Solving for Uz, Initial residual = 0.721311, Final residual = 0.0351802, No Iterations 5
[INFO] MomentumPredictor: 8412.7 [ms]
[INFO] MatrixAssemblyPI: 1235.58 [ms]
[INFO] AdjustPhi: 91.434 [ms]
[INFO] ConstrainPressure: 0.003 [ms]
[INFO] MatrixAssemblyPII: 369.709 [ms]
[OGL LOG][Proc: 0]: global_index_init: 0.021 [ms]
[OGL LOG][Proc: 0]p_local_coeffs: call_update: 0 [ms]
[OGL LOG][Proc: 0]p_non_local_coeffs: call_update: 0 [ms]
[OGL LOG][Proc: 0]p: update_local_matrix_data: 268.507 [ms]
[OGL LOG][Proc: 0]p: update_non_local_matrix_data: 2.039 [ms]
[OGL LOG][Proc: 0]p: regenerate_distributed_matrix: 703.434 [ms]
[OGL LOG][Proc: 0]p_matrix: call_update: 707.752 [ms]
[OGL LOG][Proc: 0]p_rhs: call_update: 5.531 [ms]
[OGL LOG][Preconditioner.H:121] Generate preconditioner BJ MaxBlockSize 1
[OGL LOG][Proc: 0]p: init_precond: 4.624 [ms]
[OGL LOG][StoppingCriterion.H:239] Creating stopping criterion with minIter 1843 frequency 24
[OGL LOG][Proc: 0]p: generate_solver: 0.014 [ms]
[OGL LOG][Proc: 0]p: solve: 23212 [ms]
[OGL LOG][Proc: 0]p: copy_x_back: 19.112 [ms]
[OGL LOG][lduLduBase.H:330] 
Statistics:
	Time per iteration: 7553 [mu s]
	Time per residual norm calculation: 2888.000000 [mu s]
	Time per iteration and DOF: 0.118016 [ns]
	Retrieve results bandwidth 1.674000 [GByte/s]
[OGL LOG][Proc: 0]p: solve_multi_gpu: 23960.8 [ms]
BJcudaGKOCG:  Solving for p, Initial residual = 0.9768, Final residual = 8.3386e-05, No Iterations 3073
[INFO] SolveP: 24270.3 [ms]
time step continuity errors : sum local = 3.33139e-08, global = 6.38312e-22, cumulative = 1.04319e-20
[INFO] ContinuityError: 115.115 [ms]
[INFO] CorrectBoundary: 1.93 [ms]
[INFO] PISOStep: 26559.4 [ms]
[INFO] MatrixAssemblyPI: 1239.95 [ms]
[INFO] AdjustPhi: 67.297 [ms]
[INFO] ConstrainPressure: 0.004 [ms]
[INFO] MatrixAssemblyPII: 401.378 [ms]
[OGL LOG][Proc: 0]: global_index_init: 0.941 [ms]
[OGL LOG][Proc: 0]p_local_coeffs: call_update: 0 [ms]
[OGL LOG][Proc: 0]p_non_local_coeffs: call_update: 0 [ms]
[OGL LOG][Proc: 0]p: update_local_matrix_data: 280.371 [ms]
[OGL LOG][Proc: 0]p: update_non_local_matrix_data: 2.015 [ms]
[OGL LOG][Proc: 0]p: regenerate_distributed_matrix: 703.783 [ms]
[OGL LOG][Proc: 0]p_matrix: call_update: 708.432 [ms]
[OGL LOG][Proc: 0]p_rhs: call_update: 5.678 [ms]
[OGL LOG][Preconditioner.H:121] Generate preconditioner BJ MaxBlockSize 1
[OGL LOG][Proc: 0]p: init_precond: 4.367 [ms]
[OGL LOG][StoppingCriterion.H:239] Creating stopping criterion with minIter 1843 frequency 24
[OGL LOG][Proc: 0]p: generate_solver: 0.017 [ms]
[OGL LOG][Proc: 0]p: solve: 22704.4 [ms]
[OGL LOG][Proc: 0]p: copy_x_back: 18.588 [ms]
[OGL LOG][lduLduBase.H:330] 
Statistics:
	Time per iteration: 7505 [mu s]
	Time per residual norm calculation: 2589.000000 [mu s]
	Time per iteration and DOF: 0.117266 [ns]
	Retrieve results bandwidth 1.721000 [GByte/s]
[OGL LOG][Proc: 0]p: solve_multi_gpu: 23444.3 [ms]
BJcudaGKOCG:  Solving for p, Initial residual = 0.920322, Final residual = 9.56915e-05, No Iterations 3025
[INFO] SolveP: 23771.1 [ms]
time step continuity errors : sum local = 3.83228e-08, global = 6.98451e-22, cumulative = 1.11304e-20
[INFO] ContinuityError: 124.122 [ms]
[INFO] CorrectBoundary: 3.032 [ms]
[INFO] PISOStep: 26045.9 [ms]
[INFO] TimeStep: 62251.1 [ms]
ExecutionTime = 897.84 s  ClockTime = 902 s

Time = 0.00175

Courant Number mean: 0.0384832 max: 1.02054
[INFO] MatrixAssemblyU: 1110.05 [ms]
DILUPBiCGStab:  Solving for Ux, Initial residual = 0.0614037, Final residual = 0.00413079, No Iterations 5
DILUPBiCGStab:  Solving for Uy, Initial residual = 0.251847, Final residual = 0.0135258, No Iterations 5
DILUPBiCGStab:  Solving for Uz, Initial residual = 0.726039, Final residual = 0.0351746, No Iterations 5
[INFO] MomentumPredictor: 8393.75 [ms]
[INFO] MatrixAssemblyPI: 1232.6 [ms]
[INFO] AdjustPhi: 95.433 [ms]
[INFO] ConstrainPressure: 0.003 [ms]
[INFO] MatrixAssemblyPII: 367.164 [ms]
[OGL LOG][Proc: 0]: global_index_init: 0.02 [ms]
[OGL LOG][Proc: 0]p_local_coeffs: call_update: 0 [ms]
[OGL LOG][Proc: 0]p_non_local_coeffs: call_update: 0 [ms]
[OGL LOG][Proc: 0]p: update_local_matrix_data: 258.509 [ms]
[OGL LOG][Proc: 0]p: update_non_local_matrix_data: 1.88 [ms]
[OGL LOG][Proc: 0]p: regenerate_distributed_matrix: 702.93 [ms]
[OGL LOG][Proc: 0]p_matrix: call_update: 707.737 [ms]
[OGL LOG][Proc: 0]p_rhs: call_update: 4.431 [ms]
[OGL LOG][Preconditioner.H:121] Generate preconditioner BJ MaxBlockSize 1
[OGL LOG][Proc: 0]p: init_precond: 4.91 [ms]
[OGL LOG][StoppingCriterion.H:239] Creating stopping criterion with minIter 1815 frequency 24
[OGL LOG][Proc: 0]p: generate_solver: 0.021 [ms]
[OGL LOG][Proc: 0]p: solve: 23214.4 [ms]
[OGL LOG][Proc: 0]p: copy_x_back: 18.422 [ms]
[OGL LOG][lduLduBase.H:330] 
Statistics:
	Time per iteration: 7554 [mu s]
	Time per residual norm calculation: 2889.000000 [mu s]
	Time per iteration and DOF: 0.118031 [ns]
	Retrieve results bandwidth 1.737000 [GByte/s]
[OGL LOG][Proc: 0]p: solve_multi_gpu: 23967.5 [ms]
BJcudaGKOCG:  Solving for p, Initial residual = 0.977472, Final residual = 8.18881e-05, No Iterations 3073
[INFO] SolveP: 24270.5 [ms]
time step continuity errors : sum local = 3.85551e-08, global = 9.1101e-22, cumulative = 1.20414e-20
[INFO] ContinuityError: 121.852 [ms]
[INFO] CorrectBoundary: 5.834 [ms]
[INFO] PISOStep: 26566.8 [ms]
[INFO] MatrixAssemblyPI: 1242.16 [ms]
[INFO] AdjustPhi: 68.981 [ms]
[INFO] ConstrainPressure: 0.003 [ms]
[INFO] MatrixAssemblyPII: 392.35 [ms]
[OGL LOG][Proc: 0]: global_index_init: 0.198 [ms]
[OGL LOG][Proc: 0]p_local_coeffs: call_update: 0 [ms]
[OGL LOG][Proc: 0]p_non_local_coeffs: call_update: 0 [ms]
[OGL LOG][Proc: 0]p: update_local_matrix_data: 281.691 [ms]
[OGL LOG][Proc: 0]p: update_non_local_matrix_data: 1.977 [ms]
[OGL LOG][Proc: 0]p: regenerate_distributed_matrix: 704.863 [ms]
[OGL LOG][Proc: 0]p_matrix: call_update: 709.94 [ms]
[OGL LOG][Proc: 0]p_rhs: call_update: 4.653 [ms]
[OGL LOG][Preconditioner.H:121] Generate preconditioner BJ MaxBlockSize 1
[OGL LOG][Proc: 0]p: init_precond: 2.923 [ms]
[OGL LOG][StoppingCriterion.H:239] Creating stopping criterion with minIter 1843 frequency 24
[OGL LOG][Proc: 0]p: generate_solver: 0.016 [ms]
[OGL LOG][Proc: 0]p: solve: 23055.6 [ms]
[OGL LOG][Proc: 0]p: copy_x_back: 18.626 [ms]
[OGL LOG][lduLduBase.H:330] 
Statistics:
	Time per iteration: 7502 [mu s]
	Time per residual norm calculation: 2870.000000 [mu s]
	Time per iteration and DOF: 0.117219 [ns]
	Retrieve results bandwidth 1.718000 [GByte/s]
[OGL LOG][Proc: 0]p: solve_multi_gpu: 23794.5 [ms]
BJcudaGKOCG:  Solving for p, Initial residual = 0.912732, Final residual = 7.60913e-05, No Iterations 3073
[INFO] SolveP: 24119 [ms]
time step continuity errors : sum local = 3.62208e-08, global = 1.09674e-21, cumulative = 1.31381e-20
[INFO] ContinuityError: 120.033 [ms]
[INFO] CorrectBoundary: 4.739 [ms]
[INFO] PISOStep: 26388.8 [ms]
[INFO] TimeStep: 62585 [ms]
ExecutionTime = 960.3 s  ClockTime = 964 s

Time = 0.001875

Courant Number mean: 0.0399466 max: 1.68202
[INFO] MatrixAssemblyU: 1116.69 [ms]
DILUPBiCGStab:  Solving for Ux, Initial residual = 0.0683011, Final residual = 0.00421103, No Iterations 5
DILUPBiCGStab:  Solving for Uy, Initial residual = 0.283807, Final residual = 0.0148924, No Iterations 5
DILUPBiCGStab:  Solving for Uz, Initial residual = 0.734657, Final residual = 0.034839, No Iterations 5
[INFO] MomentumPredictor: 8391.69 [ms]
[INFO] MatrixAssemblyPI: 1237.47 [ms]
[INFO] AdjustPhi: 87.643 [ms]
[INFO] ConstrainPressure: 0.003 [ms]
[INFO] MatrixAssemblyPII: 368.828 [ms]
[OGL LOG][Proc: 0]: global_index_init: 0.021 [ms]
[OGL LOG][Proc: 0]p_local_coeffs: call_update: 0 [ms]
[OGL LOG][Proc: 0]p_non_local_coeffs: call_update: 0 [ms]
[OGL LOG][Proc: 0]p: update_local_matrix_data: 255.958 [ms]
[OGL LOG][Proc: 0]p: update_non_local_matrix_data: 1.982 [ms]
[OGL LOG][Proc: 0]p: regenerate_distributed_matrix: 702.539 [ms]
[OGL LOG][Proc: 0]p_matrix: call_update: 707.717 [ms]
[OGL LOG][Proc: 0]p_rhs: call_update: 5.241 [ms]
[OGL LOG][Preconditioner.H:121] Generate preconditioner BJ MaxBlockSize 1
[OGL LOG][Proc: 0]p: init_precond: 3.974 [ms]
[OGL LOG][StoppingCriterion.H:239] Creating stopping criterion with minIter 1843 frequency 24
[OGL LOG][Proc: 0]p: generate_solver: 0.018 [ms]
[OGL LOG][Proc: 0]p: solve: 22307.3 [ms]
[OGL LOG][Proc: 0]p: copy_x_back: 19.083 [ms]
[OGL LOG][lduLduBase.H:330] 
Statistics:
	Time per iteration: 7554 [mu s]
	Time per residual norm calculation: 2582.000000 [mu s]
	Time per iteration and DOF: 0.118031 [ns]
	Retrieve results bandwidth 1.676000 [GByte/s]
[OGL LOG][Proc: 0]p: solve_multi_gpu: 23065 [ms]
BJcudaGKOCG:  Solving for p, Initial residual = 0.979611, Final residual = 9.15572e-05, No Iterations 2953
[INFO] SolveP: 23363.9 [ms]
time step continuity errors : sum local = 5.0845e-08, global = 9.3222e-22, cumulative = 1.40704e-20
[INFO] ContinuityError: 120.027 [ms]
[INFO] CorrectBoundary: 7.744 [ms]
[INFO] PISOStep: 25650 [ms]
[INFO] MatrixAssemblyPI: 1240.73 [ms]
[INFO] AdjustPhi: 70.384 [ms]
[INFO] ConstrainPressure: 0.003 [ms]
[INFO] MatrixAssemblyPII: 392.521 [ms]
[OGL LOG][Proc: 0]: global_index_init: 0.674 [ms]
[OGL LOG][Proc: 0]p_local_coeffs: call_update: 0 [ms]
[OGL LOG][Proc: 0]p_non_local_coeffs: call_update: 0 [ms]
[OGL LOG][Proc: 0]p: update_local_matrix_data: 283.087 [ms]
[OGL LOG][Proc: 0]p: update_non_local_matrix_data: 2.001 [ms]
[OGL LOG][Proc: 0]p: regenerate_distributed_matrix: 704.904 [ms]
[OGL LOG][Proc: 0]p_matrix: call_update: 710.103 [ms]
[OGL LOG][Proc: 0]p_rhs: call_update: 5.067 [ms]
[OGL LOG][Preconditioner.H:121] Generate preconditioner BJ MaxBlockSize 1
[OGL LOG][Proc: 0]p: init_precond: 3.733 [ms]
[OGL LOG][StoppingCriterion.H:239] Creating stopping criterion with minIter 1771 frequency 24
[OGL LOG][Proc: 0]p: generate_solver: 0.014 [ms]
[OGL LOG][Proc: 0]p: solve: 22834.1 [ms]
[OGL LOG][Proc: 0]p: copy_x_back: 18.716 [ms]
[OGL LOG][lduLduBase.H:330] 
Statistics:
	Time per iteration: 7548 [mu s]
	Time per residual norm calculation: 2595.000000 [mu s]
	Time per iteration and DOF: 0.117938 [ns]
	Retrieve results bandwidth 1.709000 [GByte/s]
[OGL LOG][Proc: 0]p: solve_multi_gpu: 23575.7 [ms]
BJcudaGKOCG:  Solving for p, Initial residual = 0.920818, Final residual = 9.50762e-05, No Iterations 3025
[INFO] SolveP: 23901 [ms]
time step continuity errors : sum local = 5.30059e-08, global = 5.49093e-22, cumulative = 1.46195e-20
[INFO] ContinuityError: 118.19 [ms]
[INFO] CorrectBoundary: 2.729 [ms]
[INFO] PISOStep: 26172.3 [ms]
[INFO] TimeStep: 61454.3 [ms]
ExecutionTime = 1021.63 s  ClockTime = 1026 s

Time = 0.002

Courant Number mean: 0.0409409 max: 1.71604
[INFO] MatrixAssemblyU: 1109.12 [ms]
DILUPBiCGStab:  Solving for Ux, Initial residual = 0.0796592, Final residual = 0.00463473, No Iterations 5
DILUPBiCGStab:  Solving for Uy, Initial residual = 0.300428, Final residual = 0.0147464, No Iterations 5
DILUPBiCGStab:  Solving for Uz, Initial residual = 0.738146, Final residual = 0.0346418, No Iterations 5
[INFO] MomentumPredictor: 8417.32 [ms]
[INFO] MatrixAssemblyPI: 1246.79 [ms]
[INFO] AdjustPhi: 75.731 [ms]
[INFO] ConstrainPressure: 0.003 [ms]
[INFO] MatrixAssemblyPII: 367.976 [ms]
[OGL LOG][Proc: 0]: global_index_init: 5.361 [ms]
[OGL LOG][Proc: 0]p_local_coeffs: call_update: 0 [ms]
[OGL LOG][Proc: 0]p_non_local_coeffs: call_update: 0 [ms]
[OGL LOG][Proc: 0]p: update_local_matrix_data: 256.223 [ms]
[OGL LOG][Proc: 0]p: update_non_local_matrix_data: 2.014 [ms]
[OGL LOG][Proc: 0]p: regenerate_distributed_matrix: 700.545 [ms]
[OGL LOG][Proc: 0]p_matrix: call_update: 704.532 [ms]
[OGL LOG][Proc: 0]p_rhs: call_update: 4.722 [ms]
[OGL LOG][Preconditioner.H:121] Generate preconditioner BJ MaxBlockSize 1
[OGL LOG][Proc: 0]p: init_precond: 3.956 [ms]
[OGL LOG][StoppingCriterion.H:239] Creating stopping criterion with minIter 1815 frequency 24
[OGL LOG][Proc: 0]p: generate_solver: 0.017 [ms]
[OGL LOG][Proc: 0]p: solve: 23198.7 [ms]
[OGL LOG][Proc: 0]p: copy_x_back: 19.003 [ms]
[OGL LOG][lduLduBase.H:330] 
Statistics:
	Time per iteration: 7549 [mu s]
	Time per residual norm calculation: 2885.000000 [mu s]
	Time per iteration and DOF: 0.117953 [ns]
	Retrieve results bandwidth 1.683000 [GByte/s]
[OGL LOG][Proc: 0]p: solve_multi_gpu: 23948.7 [ms]
BJcudaGKOCG:  Solving for p, Initial residual = 0.980729, Final residual = 8.61027e-05, No Iterations 3073
[INFO] SolveP: 24252.7 [ms]
time step continuity errors : sum local = 5.65843e-08, global = -1.25702e-21, cumulative = 1.33624e-20
[INFO] ContinuityError: 115.109 [ms]
[INFO] CorrectBoundary: 9.122 [ms]
[INFO] PISOStep: 26537.6 [ms]
[INFO] MatrixAssemblyPI: 1239.11 [ms]
[INFO] AdjustPhi: 67.036 [ms]
[INFO] ConstrainPressure: 0.004 [ms]
[INFO] MatrixAssemblyPII: 390.729 [ms]
[OGL LOG][Proc: 0]: global_index_init: 0.457 [ms]
[OGL LOG][Proc: 0]p_local_coeffs: call_update: 0 [ms]
[OGL LOG][Proc: 0]p_non_local_coeffs: call_update: 0 [ms]
[OGL LOG][Proc: 0]p: update_local_matrix_data: 278.624 [ms]
[OGL LOG][Proc: 0]p: update_non_local_matrix_data: 1.956 [ms]
[OGL LOG][Proc: 0]p: regenerate_distributed_matrix: 706.746 [ms]
[OGL LOG][Proc: 0]p_matrix: call_update: 711.261 [ms]
[OGL LOG][Proc: 0]p_rhs: call_update: 5.078 [ms]
[OGL LOG][Preconditioner.H:121] Generate preconditioner BJ MaxBlockSize 1
[OGL LOG][Proc: 0]p: init_precond: 3.891 [ms]
[OGL LOG][StoppingCriterion.H:239] Creating stopping criterion with minIter 1843 frequency 24
[OGL LOG][Proc: 0]p: generate_solver: 0.018 [ms]
[OGL LOG][Proc: 0]p: solve: 23177.1 [ms]
[OGL LOG][Proc: 0]p: copy_x_back: 18.495 [ms]
[OGL LOG][lduLduBase.H:330] 
Statistics:
	Time per iteration: 7542 [mu s]
	Time per residual norm calculation: 2588.000000 [mu s]
	Time per iteration and DOF: 0.117844 [ns]
	Retrieve results bandwidth 1.730000 [GByte/s]
[OGL LOG][Proc: 0]p: solve_multi_gpu: 23918 [ms]
BJcudaGKOCG:  Solving for p, Initial residual = 0.915762, Final residual = 7.98595e-05, No Iterations 3073
[INFO] SolveP: 24238.9 [ms]
time step continuity errors : sum local = 5.30159e-08, global = 9.22436e-23, cumulative = 1.34547e-20
[INFO] ContinuityError: 122.103 [ms]
[INFO] CorrectBoundary: 4.771 [ms]
[INFO] PISOStep: 26506 [ms]
[INFO] TimeStep: 62692.7 [ms]
ExecutionTime = 1084.2 s  ClockTime = 1088 s

Time = 0.002125

Courant Number mean: 0.0424411 max: 2.54791
[INFO] MatrixAssemblyU: 1114.91 [ms]
DILUPBiCGStab:  Solving for Ux, Initial residual = 0.0895359, Final residual = 0.00488305, No Iterations 5
DILUPBiCGStab:  Solving for Uy, Initial residual = 0.335332, Final residual = 0.0161808, No Iterations 5
DILUPBiCGStab:  Solving for Uz, Initial residual = 0.743917, Final residual = 0.0344461, No Iterations 5
[INFO] MomentumPredictor: 8388.25 [ms]
[INFO] MatrixAssemblyPI: 1240.35 [ms]
[INFO] AdjustPhi: 87.315 [ms]
[INFO] ConstrainPressure: 0.003 [ms]
[INFO] MatrixAssemblyPII: 369.483 [ms]
[OGL LOG][Proc: 0]: global_index_init: 0.021 [ms]
[OGL LOG][Proc: 0]p_local_coeffs: call_update: 0 [ms]
[OGL LOG][Proc: 0]p_non_local_coeffs: call_update: 0 [ms]
[OGL LOG][Proc: 0]p: update_local_matrix_data: 256.837 [ms]
[OGL LOG][Proc: 0]p: update_non_local_matrix_data: 2.063 [ms]
[OGL LOG][Proc: 0]p: regenerate_distributed_matrix: 702.279 [ms]
[OGL LOG][Proc: 0]p_matrix: call_update: 707.371 [ms]
[OGL LOG][Proc: 0]p_rhs: call_update: 4.462 [ms]
[OGL LOG][Preconditioner.H:121] Generate preconditioner BJ MaxBlockSize 1
[OGL LOG][Proc: 0]p: init_precond: 4.505 [ms]
[OGL LOG][StoppingCriterion.H:239] Creating stopping criterion with minIter 1843 frequency 24
[OGL LOG][Proc: 0]p: generate_solver: 0.015 [ms]
[OGL LOG][Proc: 0]p: solve: 23184.6 [ms]
[OGL LOG][Proc: 0]p: copy_x_back: 18.832 [ms]
[OGL LOG][lduLduBase.H:330] 
Statistics:
	Time per iteration: 7544 [mu s]
	Time per residual norm calculation: 2586.000000 [mu s]
	Time per iteration and DOF: 0.117875 [ns]
	Retrieve results bandwidth 1.699000 [GByte/s]
[OGL LOG][Proc: 0]p: solve_multi_gpu: 23930.3 [ms]
BJcudaGKOCG:  Solving for p, Initial residual = 0.981815, Final residual = 8.8861e-05, No Iterations 3073
[INFO] SolveP: 24228.3 [ms]
time step continuity errors : sum local = 6.94033e-08, global = 2.42209e-22, cumulative = 1.36969e-20
[INFO] ContinuityError: 122.003 [ms]
[INFO] CorrectBoundary: 3.649 [ms]
[INFO] PISOStep: 26515 [ms]
[INFO] MatrixAssemblyPI: 1233.64 [ms]
[INFO] AdjustPhi: 65.397 [ms]
[INFO] ConstrainPressure: 0.003 [ms]
[INFO] MatrixAssemblyPII: 389.755 [ms]
[OGL LOG][Proc: 0]: global_index_init: 0.716 [ms]
[OGL LOG][Proc: 0]p_local_coeffs: call_update: 0 [ms]
[OGL LOG][Proc: 0]p_non_local_coeffs: call_update: 0 [ms]
[OGL LOG][Proc: 0]p: update_local_matrix_data: 274.127 [ms]
[OGL LOG][Proc: 0]p: update_non_local_matrix_data: 2.062 [ms]
[OGL LOG][Proc: 0]p: regenerate_distributed_matrix: 705.409 [ms]
[OGL LOG][Proc: 0]p_matrix: call_update: 711.477 [ms]
[OGL LOG][Proc: 0]p_rhs: call_update: 4.498 [ms]
[OGL LOG][Preconditioner.H:121] Generate preconditioner BJ MaxBlockSize 1
[OGL LOG][Proc: 0]p: init_precond: 4.326 [ms]
[OGL LOG][StoppingCriterion.H:239] Creating stopping criterion with minIter 1843 frequency 24
[OGL LOG][Proc: 0]p: generate_solver: 0.017 [ms]
[OGL LOG][Proc: 0]p: solve: 23191 [ms]
[OGL LOG][Proc: 0]p: copy_x_back: 19.227 [ms]
[OGL LOG][lduLduBase.H:330] 
Statistics:
	Time per iteration: 7546 [mu s]
	Time per residual norm calculation: 2593.000000 [mu s]
	Time per iteration and DOF: 0.117906 [ns]
	Retrieve results bandwidth 1.664000 [GByte/s]
[OGL LOG][Proc: 0]p: solve_multi_gpu: 23936.7 [ms]
BJcudaGKOCG:  Solving for p, Initial residual = 0.920817, Final residual = 8.27898e-05, No Iterations 3073
[INFO] SolveP: 24253.1 [ms]
time step continuity errors : sum local = 6.50054e-08, global = 7.01359e-22, cumulative = 1.43982e-20
[INFO] ContinuityError: 128.263 [ms]
[INFO] CorrectBoundary: 5.584 [ms]
[INFO] PISOStep: 26513.2 [ms]
[INFO] TimeStep: 62653.1 [ms]
ExecutionTime = 1146.73 s  ClockTime = 1151 s

Time = 0.00225

Courant Number mean: 0.0434472 max: 2.85598
[INFO] MatrixAssemblyU: 1106.58 [ms]
DILUPBiCGStab:  Solving for Ux, Initial residual = 0.105813, Final residual = 0.0054975, No Iterations 5
DILUPBiCGStab:  Solving for Uy, Initial residual = 0.358239, Final residual = 0.0164389, No Iterations 5
DILUPBiCGStab:  Solving for Uz, Initial residual = 0.746296, Final residual = 0.0342573, No Iterations 5
[INFO] MomentumPredictor: 8408.32 [ms]
[INFO] MatrixAssemblyPI: 1237.25 [ms]
[INFO] AdjustPhi: 90.602 [ms]
[INFO] ConstrainPressure: 0.003 [ms]
[INFO] MatrixAssemblyPII: 367.046 [ms]
[OGL LOG][Proc: 0]: global_index_init: 0.333 [ms]
[OGL LOG][Proc: 0]p_local_coeffs: call_update: 0 [ms]
[OGL LOG][Proc: 0]p_non_local_coeffs: call_update: 0 [ms]
[OGL LOG][Proc: 0]p: update_local_matrix_data: 263.87 [ms]
[OGL LOG][Proc: 0]p: update_non_local_matrix_data: 1.974 [ms]
[OGL LOG][Proc: 0]p: regenerate_distributed_matrix: 703.467 [ms]
[OGL LOG][Proc: 0]p_matrix: call_update: 709.087 [ms]
[OGL LOG][Proc: 0]p_rhs: call_update: 4.367 [ms]
[OGL LOG][Preconditioner.H:121] Generate preconditioner BJ MaxBlockSize 1
[OGL LOG][Proc: 0]p: init_precond: 5.098 [ms]
[OGL LOG][StoppingCriterion.H:239] Creating stopping criterion with minIter 1843 frequency 24
[OGL LOG][Proc: 0]p: generate_solver: 0.022 [ms]
[OGL LOG][Proc: 0]p: solve: 23165.7 [ms]
[OGL LOG][Proc: 0]p: copy_x_back: 19.094 [ms]
[OGL LOG][lduLduBase.H:330] 
Statistics:
	Time per iteration: 7538 [mu s]
	Time per residual norm calculation: 2892.000000 [mu s]
	Time per iteration and DOF: 0.117781 [ns]
	Retrieve results bandwidth 1.675000 [GByte/s]
[OGL LOG][Proc: 0]p: solve_multi_gpu: 23913.4 [ms]
BJcudaGKOCG:  Solving for p, Initial residual = 0.983024, Final residual = 8.35645e-05, No Iterations 3073
[INFO] SolveP: 24219.8 [ms]
time step continuity errors : sum local = 7.78488e-08, global = 1.93103e-21, cumulative = 1.63293e-20
[INFO] ContinuityError: 120.055 [ms]
[INFO] CorrectBoundary: 1.955 [ms]
[INFO] PISOStep: 26506.2 [ms]
[INFO] MatrixAssemblyPI: 1241.73 [ms]
[INFO] AdjustPhi: 67.303 [ms]
[INFO] ConstrainPressure: 0.003 [ms]
[INFO] MatrixAssemblyPII: 390.163 [ms]
[OGL LOG][Proc: 0]: global_index_init: 0.524 [ms]
[OGL LOG][Proc: 0]p_local_coeffs: call_update: 0 [ms]
[OGL LOG][Proc: 0]p_non_local_coeffs: call_update: 0 [ms]
[OGL LOG][Proc: 0]p: update_local_matrix_data: 275.519 [ms]
[OGL LOG][Proc: 0]p: update_non_local_matrix_data: 1.919 [ms]
[OGL LOG][Proc: 0]p: regenerate_distributed_matrix: 704.123 [ms]
[OGL LOG][Proc: 0]p_matrix: call_update: 709.739 [ms]
[OGL LOG][Proc: 0]p_rhs: call_update: 4.679 [ms]
[OGL LOG][Preconditioner.H:121] Generate preconditioner BJ MaxBlockSize 1
[OGL LOG][Proc: 0]p: init_precond: 4.526 [ms]
[OGL LOG][StoppingCriterion.H:239] Creating stopping criterion with minIter 1843 frequency 24
[OGL LOG][Proc: 0]p: generate_solver: 0.014 [ms]
[OGL LOG][Proc: 0]p: solve: 23184.3 [ms]
[OGL LOG][Proc: 0]p: copy_x_back: 18.957 [ms]
[OGL LOG][lduLduBase.H:330] 
Statistics:
	Time per iteration: 7544 [mu s]
	Time per residual norm calculation: 2592.000000 [mu s]
	Time per iteration and DOF: 0.117875 [ns]
	Retrieve results bandwidth 1.688000 [GByte/s]
[OGL LOG][Proc: 0]p: solve_multi_gpu: 23924.4 [ms]
BJcudaGKOCG:  Solving for p, Initial residual = 0.917826, Final residual = 8.16696e-05, No Iterations 3073
[INFO] SolveP: 24243.2 [ms]
time step continuity errors : sum local = 7.68154e-08, global = 8.69212e-22, cumulative = 1.71985e-20
[INFO] ContinuityError: 124.5 [ms]
[INFO] CorrectBoundary: 6.826 [ms]
[INFO] PISOStep: 26512 [ms]
[INFO] TimeStep: 62655.3 [ms]
ExecutionTime = 1209.26 s  ClockTime = 1214 s

Time = 0.002375

Courant Number mean: 0.0450669 max: 3.95912
[INFO] MatrixAssemblyU: 1108.31 [ms]
DILUPBiCGStab:  Solving for Ux, Initial residual = 0.119548, Final residual = 0.00593559, No Iterations 5
DILUPBiCGStab:  Solving for Uy, Initial residual = 0.394582, Final residual = 0.0179307, No Iterations 5
DILUPBiCGStab:  Solving for Uz, Initial residual = 0.750126, Final residual = 0.0341637, No Iterations 5
[INFO] MomentumPredictor: 8406.04 [ms]
[INFO] MatrixAssemblyPI: 1235.15 [ms]
[INFO] AdjustPhi: 92.448 [ms]
[INFO] ConstrainPressure: 0.003 [ms]
[INFO] MatrixAssemblyPII: 367.711 [ms]
[OGL LOG][Proc: 0]: global_index_init: 0.05 [ms]
[OGL LOG][Proc: 0]p_local_coeffs: call_update: 0 [ms]
[OGL LOG][Proc: 0]p_non_local_coeffs: call_update: 0 [ms]
[OGL LOG][Proc: 0]p: update_local_matrix_data: 254.135 [ms]
[OGL LOG][Proc: 0]p: update_non_local_matrix_data: 2.047 [ms]
[OGL LOG][Proc: 0]p: regenerate_distributed_matrix: 704.502 [ms]
[OGL LOG][Proc: 0]p_matrix: call_update: 709.874 [ms]
[OGL LOG][Proc: 0]p_rhs: call_update: 4.208 [ms]
[OGL LOG][Preconditioner.H:121] Generate preconditioner BJ MaxBlockSize 1
[OGL LOG][Proc: 0]p: init_precond: 3.944 [ms]
[OGL LOG][StoppingCriterion.H:239] Creating stopping criterion with minIter 1843 frequency 24
[OGL LOG][Proc: 0]p: generate_solver: 0.016 [ms]
[OGL LOG][Proc: 0]p: solve: 23196.2 [ms]
[OGL LOG][Proc: 0]p: copy_x_back: 19.147 [ms]
[OGL LOG][lduLduBase.H:330] 
Statistics:
	Time per iteration: 7548 [mu s]
	Time per residual norm calculation: 2894.000000 [mu s]
	Time per iteration and DOF: 0.117938 [ns]
	Retrieve results bandwidth 1.671000 [GByte/s]
[OGL LOG][Proc: 0]p: solve_multi_gpu: 23950.5 [ms]
BJcudaGKOCG:  Solving for p, Initial residual = 0.983463, Final residual = 9.53159e-05, No Iterations 3073
[INFO] SolveP: 24250.6 [ms]
time step continuity errors : sum local = 1.06329e-07, global = 1.29169e-21, cumulative = 1.84902e-20
[INFO] ContinuityError: 119.301 [ms]
[INFO] CorrectBoundary: 3.057 [ms]
[INFO] PISOStep: 26535.5 [ms]
[INFO] MatrixAssemblyPI: 1253.9 [ms]
[INFO] AdjustPhi: 68.602 [ms]
[INFO] ConstrainPressure: 0.003 [ms]
[INFO] MatrixAssemblyPII: 391.973 [ms]
[OGL LOG][Proc: 0]: global_index_init: 0.357 [ms]
[OGL LOG][Proc: 0]p_local_coeffs: call_update: 0 [ms]
[OGL LOG][Proc: 0]p_non_local_coeffs: call_update: 0 [ms]
[OGL LOG][Proc: 0]p: update_local_matrix_data: 273.082 [ms]
[OGL LOG][Proc: 0]p: update_non_local_matrix_data: 2.019 [ms]
[OGL LOG][Proc: 0]p: regenerate_distributed_matrix: 704.503 [ms]
[OGL LOG][Proc: 0]p_matrix: call_update: 709.754 [ms]
[OGL LOG][Proc: 0]p_rhs: call_update: 5.402 [ms]
[OGL LOG][Preconditioner.H:121] Generate preconditioner BJ MaxBlockSize 1
[OGL LOG][Proc: 0]p: init_precond: 2.898 [ms]
[OGL LOG][StoppingCriterion.H:239] Creating stopping criterion with minIter 1843 frequency 24
[OGL LOG][Proc: 0]p: generate_solver: 0.015 [ms]
[OGL LOG][Proc: 0]p: solve: 23210 [ms]
[OGL LOG][Proc: 0]p: copy_x_back: 18.758 [ms]
[OGL LOG][lduLduBase.H:330] 
Statistics:
	Time per iteration: 7552 [mu s]
	Time per residual norm calculation: 2587.000000 [mu s]
	Time per iteration and DOF: 0.118000 [ns]
	Retrieve results bandwidth 1.705000 [GByte/s]
[OGL LOG][Proc: 0]p: solve_multi_gpu: 23949.5 [ms]
BJcudaGKOCG:  Solving for p, Initial residual = 0.921041, Final residual = 8.91304e-05, No Iterations 3073
[INFO] SolveP: 24264.7 [ms]
time step continuity errors : sum local = 1.00065e-07, global = 9.6974e-22, cumulative = 1.94599e-20
[INFO] ContinuityError: 116.894 [ms]
[INFO] CorrectBoundary: 1.514 [ms]
[INFO] PISOStep: 26545.3 [ms]
[INFO] TimeStep: 62717.9 [ms]
ExecutionTime = 1271.85 s  ClockTime = 1276 s

Time = 0.0025

Courant Number mean: 0.0461921 max: 4.70359
[INFO] MatrixAssemblyU: 1116.75 [ms]
DILUPBiCGStab:  Solving for Ux, Initial residual = 0.142461, Final residual = 0.00681663, No Iterations 5
DILUPBiCGStab:  Solving for Uy, Initial residual = 0.422137, Final residual = 0.0185048, No Iterations 5
DILUPBiCGStab:  Solving for Uz, Initial residual = 0.751517, Final residual = 0.0339691, No Iterations 5
[INFO] MomentumPredictor: 8412.57 [ms]
[INFO] MatrixAssemblyPI: 1233.26 [ms]
[INFO] AdjustPhi: 96.257 [ms]
[INFO] ConstrainPressure: 0.003 [ms]
[INFO] MatrixAssemblyPII: 367.726 [ms]
[OGL LOG][Proc: 0]: global_index_init: 0.024 [ms]
[OGL LOG][Proc: 0]p_local_coeffs: call_update: 0 [ms]
[OGL LOG][Proc: 0]p_non_local_coeffs: call_update: 0 [ms]
[OGL LOG][Proc: 0]p: update_local_matrix_data: 249.928 [ms]
[OGL LOG][Proc: 0]p: update_non_local_matrix_data: 2.078 [ms]
[OGL LOG][Proc: 0]p: regenerate_distributed_matrix: 702.23 [ms]
[OGL LOG][Proc: 0]p_matrix: call_update: 706.722 [ms]
[OGL LOG][Proc: 0]p_rhs: call_update: 4.945 [ms]
[OGL LOG][Preconditioner.H:121] Generate preconditioner BJ MaxBlockSize 1
[OGL LOG][Proc: 0]p: init_precond: 3.309 [ms]
[OGL LOG][StoppingCriterion.H:239] Creating stopping criterion with minIter 1843 frequency 24
[OGL LOG][Proc: 0]p: generate_solver: 0.02 [ms]
[OGL LOG][Proc: 0]p: solve: 23192 [ms]
[OGL LOG][Proc: 0]p: copy_x_back: 18.62 [ms]
[OGL LOG][lduLduBase.H:330] 
Statistics:
	Time per iteration: 7547 [mu s]
	Time per residual norm calculation: 2587.000000 [mu s]
	Time per iteration and DOF: 0.117922 [ns]
	Retrieve results bandwidth 1.718000 [GByte/s]
[OGL LOG][Proc: 0]p: solve_multi_gpu: 23955.7 [ms]
BJcudaGKOCG:  Solving for p, Initial residual = 0.984346, Final residual = 9.66953e-05, No Iterations 3073
[INFO] SolveP: 24253.4 [ms]
time step continuity errors : sum local = 1.29542e-07, global = 9.98045e-22, cumulative = 2.0458e-20
[INFO] ContinuityError: 114.914 [ms]
[INFO] CorrectBoundary: 3.502 [ms]
[INFO] PISOStep: 26537.4 [ms]
[INFO] MatrixAssemblyPI: 1236.27 [ms]
[INFO] AdjustPhi: 66.718 [ms]
[INFO] ConstrainPressure: 0.003 [ms]
[INFO] MatrixAssemblyPII: 391.519 [ms]
[OGL LOG][Proc: 0]: global_index_init: 0.626 [ms]
[OGL LOG][Proc: 0]p_local_coeffs: call_update: 0 [ms]
[OGL LOG][Proc: 0]p_non_local_coeffs: call_update: 0 [ms]
[OGL LOG][Proc: 0]p: update_local_matrix_data: 276.25 [ms]
[OGL LOG][Proc: 0]p: update_non_local_matrix_data: 2.007 [ms]
[OGL LOG][Proc: 0]p: regenerate_distributed_matrix: 701.577 [ms]
[OGL LOG][Proc: 0]p_matrix: call_update: 703.695 [ms]
[OGL LOG][Proc: 0]p_rhs: call_update: 8.264 [ms]
[OGL LOG][Preconditioner.H:121] Generate preconditioner BJ MaxBlockSize 1
[OGL LOG][Proc: 0]p: init_precond: 4.409 [ms]
[OGL LOG][StoppingCriterion.H:239] Creating stopping criterion with minIter 1843 frequency 24
[OGL LOG][Proc: 0]p: generate_solver: 0.015 [ms]
[OGL LOG][Proc: 0]p: solve: 23185.6 [ms]
[OGL LOG][Proc: 0]p: copy_x_back: 18.205 [ms]
[OGL LOG][lduLduBase.H:330] 
Statistics:
	Time per iteration: 7544 [mu s]
	Time per residual norm calculation: 2887.000000 [mu s]
	Time per iteration and DOF: 0.117875 [ns]
	Retrieve results bandwidth 1.757000 [GByte/s]
[OGL LOG][Proc: 0]p: solve_multi_gpu: 23922.1 [ms]
BJcudaGKOCG:  Solving for p, Initial residual = 0.919183, Final residual = 8.97939e-05, No Iterations 3073
[INFO] SolveP: 24243.3 [ms]
time step continuity errors : sum local = 1.21423e-07, global = 1.23302e-22, cumulative = 2.05813e-20
[INFO] ContinuityError: 120.753 [ms]
[INFO] CorrectBoundary: 4.437 [ms]
[INFO] PISOStep: 26507.8 [ms]
[INFO] TimeStep: 62701.6 [ms]
ExecutionTime = 1334.43 s  ClockTime = 1339 s

End

Finalising parallel run
