/*---------------------------------------------------------------------------*\
| =========                 |                                                 |
| \\      /  F ield         | OpenFOAM: The Open Source CFD Toolbox           |
|  \\    /   O peration     | Version:  2306                                  |
|   \\  /    A nd           | Website:  www.openfoam.com                      |
|    \\/     M anipulation  |                                                 |
\*---------------------------------------------------------------------------*/
Build  : c423ebec-20231012 OPENFOAM=2306 version=v2306
Arch   : "LSB;label=32;scalar=64"
Exec   : icoFoam -parallel -case /hkfs/work/workspace/scratch/eq4036-l3d/workspace/cba3ebea10b56b348ba35c88cda933c4/case
Date   : Dec 30 2023
Time   : 09:52:43
Host   : hkn0807.localdomain
PID    : 1786105
I/O    : uncollated
Case   : /hkfs/work/workspace/scratch/eq4036-l3d/workspace/cba3ebea10b56b348ba35c88cda933c4/case
nProcs : 16
Hosts  :
(
    (hkn0807.localdomain 16)
)
Pstream initialized with:
    floatTransfer      : false
    nProcsSimpleSum    : 0
    nonBlockingExchange: 0 (tuning: 0)
    exchange algorithm : -1
    commsType          : nonBlocking
    polling iterations : 0
trapFpe: Floating point exception trapping enabled (FOAM_SIGFPE).
fileModificationChecking : Monitoring run-time modified files using timeStampMaster (fileModificationSkew 5, maxFileModificationPolls 20)
allowSystemOperations : Allowing user-supplied system call operations

// * * * * * * * * * * * * * * * * * * * * * * * * * * * * * * * * * * * * * //
Create time

--> FOAM Warning : 
    From void* Foam::dlLibraryTable::openLibrary(const Foam::fileName&, bool)
    in file db/dynamicLibrary/dlLibraryTable/dlLibraryTable.C at line 188
    Could not load "libpetscFoam.so"
libpetscFoam.so: cannot open shared object file: No such file or directory
Create mesh for time = 0


PISO: Operating solver in PISO mode

Reading transportProperties

Reading field p

Reading field U

Reading/calculating face flux field phi


Starting time loop

Time = 0.00025

Courant Number mean: 8.24341e-18 max: 2.08167e-14
[INFO] MatrixAssemblyU: 150.94 [ms]
DILUPBiCGStab:  Solving for Ux, Initial residual = 1, Final residual = 0.00994539, No Iterations 5
DILUPBiCGStab:  Solving for Uy:  solution singularity
DILUPBiCGStab:  Solving for Uz:  solution singularity
[INFO] MomentumPredictor: 507.248 [ms]
[INFO] MatrixAssemblyPI: 142.107 [ms]
[INFO] AdjustPhi: 7.116 [ms]
[INFO] ConstrainPressure: 0.006 [ms]
[INFO] MatrixAssemblyPII: 39.166 [ms]
[OGL LOG][lduLduBase.H:119] Initialising OGL
	OGL commit:  a2fc0ff+
	Branch: feat/on_device_permute 
	Build type: Release
	Ginkgo version: 1.7.0 ( develop)
	Ginkgo commit: sparse-communicator
	MPI is GPU aware: 1
	Forces host buffer based communication: 0
	CPU ranks per GPU: 1
	Matrix format: Ell
	End OGL_INFO
[OGL LOG][Proc: 0]: global_index_init: 0.058 [ms]
[OGL LOG][Proc: 0]p_local_cols: call_init: 0.645 [ms]
[OGL LOG][Proc: 0]p_local_rows: call_init: 0.703 [ms]
[OGL LOG][Proc: 0]p_local_ldu_map: call_init: 0.281 [ms]
[OGL LOG][Proc: 0]p_local_coeffs: call_init: 3.983 [ms]
[OGL LOG][Proc: 0]p_non_local_cols: call_init: 0.01 [ms]
[OGL LOG][Proc: 0]p_non_local_rows: call_init: 0.377 [ms]
[OGL LOG][Proc: 0]p_non_local_ldu_map: call_init: 0.498 [ms]
[OGL LOG][Proc: 0]p_non_local_coeffs: call_init: 0.258 [ms]
[OGL LOG][Proc: 0]p: init_local_sparsity_pattern: 160.665 [ms]
[OGL LOG][Proc: 0]p: init_non_local_sparsity_pattern: 1.264 [ms]
[OGL LOG][Proc: 0]p: update_local_matrix_data: 81.549 [ms]
[OGL LOG][Proc: 0]p: update_non_local_matrix_data: 0.13 [ms]
[OGL LOG][Proc: 0]device_partition: call_init: 0.076 [ms]
[OGL LOG][Proc: 0]p_matrix: call_init: 83.825 [ms]
[OGL LOG][Proc: 0]p_rhs: call_init: 0.979 [ms]
[OGL LOG][Proc: 0]p_solution: call_init: 1.856 [ms]
[OGL LOG][Preconditioner.H:121] Generate preconditioner BJ MaxBlockSize 1
[OGL LOG][Proc: 0]p: init_precond: 20.319 [ms]
[OGL LOG][StoppingCriterion.H:237] Creating stopping criterion with minIter 0 frequency 1
[OGL LOG][Proc: 0]p: generate_solver: 0.01 [ms]
[OGL LOG][Proc: 0]p: solve: 17272.9 [ms]
[OGL LOG][Proc: 0]p: copy_x_back: 2.373 [ms]
[OGL LOG][lduLduBase.H:330] 
Statistics:
	Time per iteration: 10815 [mu s]
	Time per residual norm calculation: 7629.000000 [mu s]
	Time per iteration and DOF: 1.351875 [ns]
	Retrieve results bandwidth 1.685000 [GByte/s]
[OGL LOG][Proc: 0]p: solve_multi_gpu: 17386.2 [ms]
BJcudaGKOCG:  Solving for p, Initial residual = 1, Final residual = 9.81733e-05, No Iterations 1597
[INFO] SolveP: 20715.8 [ms]
time step continuity errors : sum local = 7.53636e-09, global = -1.41998e-21, cumulative = -1.41998e-21
[INFO] ContinuityError: 15.154 [ms]
[INFO] CorrectBoundary: 0.348 [ms]
[INFO] PISOStep: 20968.8 [ms]
[INFO] MatrixAssemblyPI: 134.718 [ms]
[INFO] AdjustPhi: 6.335 [ms]
[INFO] ConstrainPressure: 0.003 [ms]
[INFO] MatrixAssemblyPII: 39.554 [ms]
[OGL LOG][Proc: 0]: global_index_init: 0.141 [ms]
[OGL LOG][Proc: 0]p_local_coeffs: call_update: 0.001 [ms]
[OGL LOG][Proc: 0]p_non_local_coeffs: call_update: 0 [ms]
[OGL LOG][Proc: 0]p: update_local_matrix_data: 25.984 [ms]
[OGL LOG][Proc: 0]p: update_non_local_matrix_data: 0.139 [ms]
[OGL LOG][Proc: 0]p: regenerate_distributed_matrix: 83.844 [ms]
[OGL LOG][Proc: 0]p_matrix: call_update: 85.825 [ms]
[OGL LOG][Proc: 0]p_rhs: call_update: 0.46 [ms]
[OGL LOG][Preconditioner.H:121] Generate preconditioner BJ MaxBlockSize 1
[OGL LOG][Proc: 0]p: init_precond: 3.212 [ms]
[OGL LOG][StoppingCriterion.H:237] Creating stopping criterion with minIter 958 frequency 25
[OGL LOG][Proc: 0]p: generate_solver: 0.001 [ms]
[OGL LOG][Proc: 0]p: solve: 13408.9 [ms]
[OGL LOG][Proc: 0]p: copy_x_back: 2.124 [ms]
[OGL LOG][lduLduBase.H:330] 
Statistics:
	Time per iteration: 8375 [mu s]
	Time per residual norm calculation: 2486.000000 [mu s]
	Time per iteration and DOF: 1.046875 [ns]
	Retrieve results bandwidth 1.883000 [GByte/s]
[OGL LOG][Proc: 0]p: solve_multi_gpu: 13506.1 [ms]
BJcudaGKOCG:  Solving for p, Initial residual = 0.786384, Final residual = 6.57717e-05, No Iterations 1601
[INFO] SolveP: 13537.7 [ms]
time step continuity errors : sum local = 6.31131e-09, global = -4.77232e-22, cumulative = -1.89721e-21
[INFO] ContinuityError: 14.957 [ms]
[INFO] CorrectBoundary: 0.428 [ms]
[INFO] PISOStep: 13782.6 [ms]
[INFO] TimeStep: 35427.4 [ms]
ExecutionTime = 33.7 s  ClockTime = 36 s

Time = 0.0005

Courant Number mean: 0.0159459 max: 0.412549
[INFO] MatrixAssemblyU: 125.941 [ms]
DILUPBiCGStab:  Solving for Ux, Initial residual = 0.129572, Final residual = 0.00549868, No Iterations 5
DILUPBiCGStab:  Solving for Uy, Initial residual = 0.426966, Final residual = 0.0140635, No Iterations 5
DILUPBiCGStab:  Solving for Uz, Initial residual = 0.987083, Final residual = 0.0342192, No Iterations 5
[INFO] MomentumPredictor: 951.221 [ms]
[INFO] MatrixAssemblyPI: 138.701 [ms]
[INFO] AdjustPhi: 6.173 [ms]
[INFO] ConstrainPressure: 0.002 [ms]
[INFO] MatrixAssemblyPII: 39.564 [ms]
[OGL LOG][Proc: 0]: global_index_init: 0.027 [ms]
[OGL LOG][Proc: 0]p_local_coeffs: call_update: 0 [ms]
[OGL LOG][Proc: 0]p_non_local_coeffs: call_update: 0 [ms]
[OGL LOG][Proc: 0]p: update_local_matrix_data: 25.927 [ms]
[OGL LOG][Proc: 0]p: update_non_local_matrix_data: 0.171 [ms]
[OGL LOG][Proc: 0]p: regenerate_distributed_matrix: 86.789 [ms]
[OGL LOG][Proc: 0]p_matrix: call_update: 87.975 [ms]
[OGL LOG][Proc: 0]p_rhs: call_update: 2.352 [ms]
[OGL LOG][Preconditioner.H:121] Generate preconditioner BJ MaxBlockSize 1
[OGL LOG][Proc: 0]p: init_precond: 3.225 [ms]
[OGL LOG][StoppingCriterion.H:237] Creating stopping criterion with minIter 960 frequency 14
[OGL LOG][Proc: 0]p: generate_solver: 0.001 [ms]
[OGL LOG][Proc: 0]p: solve: 13159.5 [ms]
[OGL LOG][Proc: 0]p: copy_x_back: 1.88 [ms]
[OGL LOG][lduLduBase.H:330] 
Statistics:
	Time per iteration: 8387 [mu s]
	Time per residual norm calculation: 2485.000000 [mu s]
	Time per iteration and DOF: 1.048375 [ns]
	Retrieve results bandwidth 2.127000 [GByte/s]
[OGL LOG][Proc: 0]p: solve_multi_gpu: 13260.2 [ms]
BJcudaGKOCG:  Solving for p, Initial residual = 0.825159, Final residual = 9.63432e-05, No Iterations 1569
[INFO] SolveP: 13291.8 [ms]
time step continuity errors : sum local = 1.41907e-08, global = -3.68393e-22, cumulative = -2.2656e-21
[INFO] ContinuityError: 14.841 [ms]
[INFO] CorrectBoundary: 0.474 [ms]
[INFO] PISOStep: 13541.4 [ms]
[INFO] MatrixAssemblyPI: 133.948 [ms]
[INFO] AdjustPhi: 8.357 [ms]
[INFO] ConstrainPressure: 0.003 [ms]
[INFO] MatrixAssemblyPII: 39.014 [ms]
[OGL LOG][Proc: 0]: global_index_init: 0.119 [ms]
[OGL LOG][Proc: 0]p_local_coeffs: call_update: 0 [ms]
[OGL LOG][Proc: 0]p_non_local_coeffs: call_update: 0 [ms]
[OGL LOG][Proc: 0]p: update_local_matrix_data: 26.585 [ms]
[OGL LOG][Proc: 0]p: update_non_local_matrix_data: 0.165 [ms]
[OGL LOG][Proc: 0]p: regenerate_distributed_matrix: 89.946 [ms]
[OGL LOG][Proc: 0]p_matrix: call_update: 92.443 [ms]
[OGL LOG][Proc: 0]p_rhs: call_update: 0.68 [ms]
[OGL LOG][Preconditioner.H:121] Generate preconditioner BJ MaxBlockSize 1
[OGL LOG][Proc: 0]p: init_precond: 2.852 [ms]
[OGL LOG][StoppingCriterion.H:237] Creating stopping criterion with minIter 941 frequency 14
[OGL LOG][Proc: 0]p: generate_solver: 0.001 [ms]
[OGL LOG][Proc: 0]p: solve: 13158 [ms]
[OGL LOG][Proc: 0]p: copy_x_back: 1.995 [ms]
[OGL LOG][lduLduBase.H:330] 
Statistics:
	Time per iteration: 8386 [mu s]
	Time per residual norm calculation: 2463.000000 [mu s]
	Time per iteration and DOF: 1.048250 [ns]
	Retrieve results bandwidth 2.005000 [GByte/s]
[OGL LOG][Proc: 0]p: solve_multi_gpu: 13260.6 [ms]
BJcudaGKOCG:  Solving for p, Initial residual = 0.768302, Final residual = 8.72667e-05, No Iterations 1569
[INFO] SolveP: 13292.6 [ms]
time step continuity errors : sum local = 1.30854e-08, global = -1.95586e-21, cumulative = -4.22145e-21
[INFO] ContinuityError: 15.735 [ms]
[INFO] CorrectBoundary: 0.809 [ms]
[INFO] PISOStep: 13540.3 [ms]
[INFO] TimeStep: 28174.8 [ms]
ExecutionTime = 61.83 s  ClockTime = 65 s

Time = 0.00075

Courant Number mean: 0.024329 max: 0.472011
[INFO] MatrixAssemblyU: 124.437 [ms]
DILUPBiCGStab:  Solving for Ux, Initial residual = 0.0547783, Final residual = 0.00187252, No Iterations 5
DILUPBiCGStab:  Solving for Uy, Initial residual = 0.182221, Final residual = 0.00762611, No Iterations 5
DILUPBiCGStab:  Solving for Uz, Initial residual = 0.810798, Final residual = 0.0252394, No Iterations 5
[INFO] MomentumPredictor: 937.009 [ms]
[INFO] MatrixAssemblyPI: 137.5 [ms]
[INFO] AdjustPhi: 6.34 [ms]
[INFO] ConstrainPressure: 0.002 [ms]
[INFO] MatrixAssemblyPII: 39.132 [ms]
[OGL LOG][Proc: 0]: global_index_init: 0.026 [ms]
[OGL LOG][Proc: 0]p_local_coeffs: call_update: 0 [ms]
[OGL LOG][Proc: 0]p_non_local_coeffs: call_update: 0 [ms]
[OGL LOG][Proc: 0]p: update_local_matrix_data: 26.242 [ms]
[OGL LOG][Proc: 0]p: update_non_local_matrix_data: 0.159 [ms]
[OGL LOG][Proc: 0]p: regenerate_distributed_matrix: 86.208 [ms]
[OGL LOG][Proc: 0]p_matrix: call_update: 88.22 [ms]
[OGL LOG][Proc: 0]p_rhs: call_update: 0.547 [ms]
[OGL LOG][Preconditioner.H:121] Generate preconditioner BJ MaxBlockSize 1
[OGL LOG][Proc: 0]p: init_precond: 2.461 [ms]
[OGL LOG][StoppingCriterion.H:237] Creating stopping criterion with minIter 941 frequency 14
[OGL LOG][Proc: 0]p: generate_solver: 0.001 [ms]
[OGL LOG][Proc: 0]p: solve: 13162.7 [ms]
[OGL LOG][Proc: 0]p: copy_x_back: 2.288 [ms]
[OGL LOG][lduLduBase.H:330] 
Statistics:
	Time per iteration: 8389 [mu s]
	Time per residual norm calculation: 2628.000000 [mu s]
	Time per iteration and DOF: 1.048625 [ns]
	Retrieve results bandwidth 1.748000 [GByte/s]
[OGL LOG][Proc: 0]p: solve_multi_gpu: 13261.2 [ms]
BJcudaGKOCG:  Solving for p, Initial residual = 0.849308, Final residual = 8.37834e-05, No Iterations 1569
[INFO] SolveP: 13293.1 [ms]
time step continuity errors : sum local = 1.12664e-08, global = 8.38629e-22, cumulative = -3.38283e-21
[INFO] ContinuityError: 15.591 [ms]
[INFO] CorrectBoundary: 0.866 [ms]
[INFO] PISOStep: 13541.6 [ms]
[INFO] MatrixAssemblyPI: 133.001 [ms]
[INFO] AdjustPhi: 6.174 [ms]
[INFO] ConstrainPressure: 0.003 [ms]
[INFO] MatrixAssemblyPII: 38.95 [ms]
[OGL LOG][Proc: 0]: global_index_init: 0.074 [ms]
[OGL LOG][Proc: 0]p_local_coeffs: call_update: 0 [ms]
[OGL LOG][Proc: 0]p_non_local_coeffs: call_update: 0 [ms]
[OGL LOG][Proc: 0]p: update_local_matrix_data: 25.592 [ms]
[OGL LOG][Proc: 0]p: update_non_local_matrix_data: 0.118 [ms]
[OGL LOG][Proc: 0]p: regenerate_distributed_matrix: 85.842 [ms]
[OGL LOG][Proc: 0]p_matrix: call_update: 86.632 [ms]
[OGL LOG][Proc: 0]p_rhs: call_update: 4.531 [ms]
[OGL LOG][Preconditioner.H:121] Generate preconditioner BJ MaxBlockSize 1
[OGL LOG][Proc: 0]p: init_precond: 2.662 [ms]
[OGL LOG][StoppingCriterion.H:237] Creating stopping criterion with minIter 941 frequency 14
[OGL LOG][Proc: 0]p: generate_solver: 0.001 [ms]
[OGL LOG][Proc: 0]p: solve: 13169.9 [ms]
[OGL LOG][Proc: 0]p: copy_x_back: 1.837 [ms]
[OGL LOG][lduLduBase.H:330] 
Statistics:
	Time per iteration: 8393 [mu s]
	Time per residual norm calculation: 2488.000000 [mu s]
	Time per iteration and DOF: 1.049125 [ns]
	Retrieve results bandwidth 2.177000 [GByte/s]
[OGL LOG][Proc: 0]p: solve_multi_gpu: 13271.3 [ms]
BJcudaGKOCG:  Solving for p, Initial residual = 0.815703, Final residual = 7.65055e-05, No Iterations 1569
[INFO] SolveP: 13302.3 [ms]
time step continuity errors : sum local = 1.00665e-08, global = -1.07964e-21, cumulative = -4.46247e-21
[INFO] ContinuityError: 16.309 [ms]
[INFO] CorrectBoundary: 0.97 [ms]
[INFO] PISOStep: 13545.5 [ms]
[INFO] TimeStep: 28164.1 [ms]
ExecutionTime = 89.96 s  ClockTime = 93 s

Time = 0.001

Courant Number mean: 0.0291952 max: 0.467755
[INFO] MatrixAssemblyU: 125.099 [ms]
DILUPBiCGStab:  Solving for Ux, Initial residual = 0.0346914, Final residual = 0.00124166, No Iterations 5
DILUPBiCGStab:  Solving for Uy, Initial residual = 0.129101, Final residual = 0.00473215, No Iterations 5
DILUPBiCGStab:  Solving for Uz, Initial residual = 0.610701, Final residual = 0.0152014, No Iterations 5
[INFO] MomentumPredictor: 937.247 [ms]
[INFO] MatrixAssemblyPI: 136.945 [ms]
[INFO] AdjustPhi: 6.167 [ms]
[INFO] ConstrainPressure: 0.003 [ms]
[INFO] MatrixAssemblyPII: 39.148 [ms]
[OGL LOG][Proc: 0]: global_index_init: 0.109 [ms]
[OGL LOG][Proc: 0]p_local_coeffs: call_update: 0 [ms]
[OGL LOG][Proc: 0]p_non_local_coeffs: call_update: 0 [ms]
[OGL LOG][Proc: 0]p: update_local_matrix_data: 26.796 [ms]
[OGL LOG][Proc: 0]p: update_non_local_matrix_data: 0.16 [ms]
[OGL LOG][Proc: 0]p: regenerate_distributed_matrix: 86.822 [ms]
[OGL LOG][Proc: 0]p_matrix: call_update: 88.77 [ms]
[OGL LOG][Proc: 0]p_rhs: call_update: 0.546 [ms]
[OGL LOG][Preconditioner.H:121] Generate preconditioner BJ MaxBlockSize 1
[OGL LOG][Proc: 0]p: init_precond: 3.139 [ms]
[OGL LOG][StoppingCriterion.H:237] Creating stopping criterion with minIter 941 frequency 14
[OGL LOG][Proc: 0]p: generate_solver: 0.001 [ms]
[OGL LOG][Proc: 0]p: solve: 7953.83 [ms]
[OGL LOG][Proc: 0]p: copy_x_back: 1.792 [ms]
[OGL LOG][lduLduBase.H:330] 
Statistics:
	Time per iteration: 8346 [mu s]
	Time per residual norm calculation: 2625.000000 [mu s]
	Time per iteration and DOF: 1.043250 [ns]
	Retrieve results bandwidth 2.232000 [GByte/s]
[OGL LOG][Proc: 0]p: solve_multi_gpu: 8052.51 [ms]
BJcudaGKOCG:  Solving for p, Initial residual = 0.770617, Final residual = 5.06058e-05, No Iterations 953
[INFO] SolveP: 8084.35 [ms]
time step continuity errors : sum local = 6.6442e-09, global = 1.02666e-21, cumulative = -3.43581e-21
[INFO] ContinuityError: 15.18 [ms]
[INFO] CorrectBoundary: 0.358 [ms]
[INFO] PISOStep: 8329.95 [ms]
[INFO] MatrixAssemblyPI: 134.478 [ms]
[INFO] AdjustPhi: 6.157 [ms]
[INFO] ConstrainPressure: 0.003 [ms]
[INFO] MatrixAssemblyPII: 39.458 [ms]
[OGL LOG][Proc: 0]: global_index_init: 0.086 [ms]
[OGL LOG][Proc: 0]p_local_coeffs: call_update: 0 [ms]
[OGL LOG][Proc: 0]p_non_local_coeffs: call_update: 0 [ms]
[OGL LOG][Proc: 0]p: update_local_matrix_data: 25.422 [ms]
[OGL LOG][Proc: 0]p: update_non_local_matrix_data: 0.11 [ms]
[OGL LOG][Proc: 0]p: regenerate_distributed_matrix: 85.855 [ms]
[OGL LOG][Proc: 0]p_matrix: call_update: 87.523 [ms]
[OGL LOG][Proc: 0]p_rhs: call_update: 0.763 [ms]
[OGL LOG][Preconditioner.H:121] Generate preconditioner BJ MaxBlockSize 1
[OGL LOG][Proc: 0]p: init_precond: 2.955 [ms]
[OGL LOG][StoppingCriterion.H:237] Creating stopping criterion with minIter 571 frequency 11
[OGL LOG][Proc: 0]p: generate_solver: 0.001 [ms]
[OGL LOG][Proc: 0]p: solve: 6382.05 [ms]
[OGL LOG][Proc: 0]p: copy_x_back: 1.832 [ms]
[OGL LOG][lduLduBase.H:330] 
Statistics:
	Time per iteration: 8397 [mu s]
	Time per residual norm calculation: 2487.000000 [mu s]
	Time per iteration and DOF: 1.049625 [ns]
	Retrieve results bandwidth 2.183000 [GByte/s]
[OGL LOG][Proc: 0]p: solve_multi_gpu: 6480.75 [ms]
BJcudaGKOCG:  Solving for p, Initial residual = 0.707983, Final residual = 8.73904e-05, No Iterations 760
[INFO] SolveP: 6511.11 [ms]
time step continuity errors : sum local = 1.09595e-08, global = -7.25076e-22, cumulative = -4.16088e-21
[INFO] ContinuityError: 15.49 [ms]
[INFO] CorrectBoundary: 0.271 [ms]
[INFO] PISOStep: 6753.94 [ms]
[INFO] TimeStep: 16162.1 [ms]
ExecutionTime = 106.1 s  ClockTime = 109 s

Time = 0.00125

Courant Number mean: 0.0333376 max: 0.472934
[INFO] MatrixAssemblyU: 124.697 [ms]
DILUPBiCGStab:  Solving for Ux, Initial residual = 0.0271318, Final residual = 0.000902579, No Iterations 5
DILUPBiCGStab:  Solving for Uy, Initial residual = 0.0813997, Final residual = 0.00356628, No Iterations 5
DILUPBiCGStab:  Solving for Uz, Initial residual = 0.462325, Final residual = 0.0116881, No Iterations 5
[INFO] MomentumPredictor: 935.01 [ms]
[INFO] MatrixAssemblyPI: 136.606 [ms]
[INFO] AdjustPhi: 7.737 [ms]
[INFO] ConstrainPressure: 0.003 [ms]
[INFO] MatrixAssemblyPII: 39.347 [ms]
[OGL LOG][Proc: 0]: global_index_init: 0.05 [ms]
[OGL LOG][Proc: 0]p_local_coeffs: call_update: 0 [ms]
[OGL LOG][Proc: 0]p_non_local_coeffs: call_update: 0 [ms]
[OGL LOG][Proc: 0]p: update_local_matrix_data: 26.523 [ms]
[OGL LOG][Proc: 0]p: update_non_local_matrix_data: 0.161 [ms]
[OGL LOG][Proc: 0]p: regenerate_distributed_matrix: 85.562 [ms]
[OGL LOG][Proc: 0]p_matrix: call_update: 87.469 [ms]
[OGL LOG][Proc: 0]p_rhs: call_update: 0.579 [ms]
[OGL LOG][Preconditioner.H:121] Generate preconditioner BJ MaxBlockSize 1
[OGL LOG][Proc: 0]p: init_precond: 2.594 [ms]
[OGL LOG][StoppingCriterion.H:237] Creating stopping criterion with minIter 456 frequency 10
[OGL LOG][Proc: 0]p: generate_solver: 0.001 [ms]
[OGL LOG][Proc: 0]p: solve: 6259.45 [ms]
[OGL LOG][Proc: 0]p: copy_x_back: 1.711 [ms]
[OGL LOG][lduLduBase.H:330] 
Statistics:
	Time per iteration: 8447 [mu s]
	Time per residual norm calculation: 2484.000000 [mu s]
	Time per iteration and DOF: 1.055875 [ns]
	Retrieve results bandwidth 2.337000 [GByte/s]
[OGL LOG][Proc: 0]p: solve_multi_gpu: 6356.45 [ms]
BJcudaGKOCG:  Solving for p, Initial residual = 0.776198, Final residual = 9.32238e-05, No Iterations 741
[INFO] SolveP: 6388.02 [ms]
time step continuity errors : sum local = 9.61626e-09, global = -3.35965e-22, cumulative = -4.49685e-21
[INFO] ContinuityError: 15.902 [ms]
[INFO] CorrectBoundary: 0.282 [ms]
[INFO] PISOStep: 6634.77 [ms]
[INFO] MatrixAssemblyPI: 134.072 [ms]
[INFO] AdjustPhi: 6.511 [ms]
[INFO] ConstrainPressure: 0.002 [ms]
[INFO] MatrixAssemblyPII: 39.007 [ms]
[OGL LOG][Proc: 0]: global_index_init: 0.013 [ms]
[OGL LOG][Proc: 0]p_local_coeffs: call_update: 0 [ms]
[OGL LOG][Proc: 0]p_non_local_coeffs: call_update: 0 [ms]
[OGL LOG][Proc: 0]p: update_local_matrix_data: 26.518 [ms]
[OGL LOG][Proc: 0]p: update_non_local_matrix_data: 0.113 [ms]
[OGL LOG][Proc: 0]p: regenerate_distributed_matrix: 87.715 [ms]
[OGL LOG][Proc: 0]p_matrix: call_update: 89.644 [ms]
[OGL LOG][Proc: 0]p_rhs: call_update: 0.662 [ms]
[OGL LOG][Preconditioner.H:121] Generate preconditioner BJ MaxBlockSize 1
[OGL LOG][Proc: 0]p: init_precond: 2.917 [ms]
[OGL LOG][StoppingCriterion.H:237] Creating stopping criterion with minIter 444 frequency 9
[OGL LOG][Proc: 0]p: generate_solver: 0.001 [ms]
[OGL LOG][Proc: 0]p: solve: 6251.26 [ms]
[OGL LOG][Proc: 0]p: copy_x_back: 2.04 [ms]
[OGL LOG][lduLduBase.H:330] 
Statistics:
	Time per iteration: 8459 [mu s]
	Time per residual norm calculation: 2325.000000 [mu s]
	Time per iteration and DOF: 1.057375 [ns]
	Retrieve results bandwidth 1.960000 [GByte/s]
[OGL LOG][Proc: 0]p: solve_multi_gpu: 6350.63 [ms]
BJcudaGKOCG:  Solving for p, Initial residual = 0.725248, Final residual = 9.35983e-05, No Iterations 739
[INFO] SolveP: 6383.46 [ms]
time step continuity errors : sum local = 9.39497e-09, global = -7.40624e-22, cumulative = -5.23747e-21
[INFO] ContinuityError: 13.58 [ms]
[INFO] CorrectBoundary: 0.294 [ms]
[INFO] PISOStep: 6626.86 [ms]
[INFO] TimeStep: 14336.6 [ms]
ExecutionTime = 120.42 s  ClockTime = 123 s

Time = 0.0015

Courant Number mean: 0.0366382 max: 0.475557
[INFO] MatrixAssemblyU: 125.87 [ms]
DILUPBiCGStab:  Solving for Ux, Initial residual = 0.0204307, Final residual = 0.00064498, No Iterations 5
DILUPBiCGStab:  Solving for Uy, Initial residual = 0.0658479, Final residual = 0.00244951, No Iterations 5
DILUPBiCGStab:  Solving for Uz, Initial residual = 0.335843, Final residual = 0.00854381, No Iterations 5
[INFO] MomentumPredictor: 938.519 [ms]
[INFO] MatrixAssemblyPI: 137.381 [ms]
[INFO] AdjustPhi: 6.205 [ms]
[INFO] ConstrainPressure: 0.003 [ms]
[INFO] MatrixAssemblyPII: 39.337 [ms]
[OGL LOG][Proc: 0]: global_index_init: 0.019 [ms]
[OGL LOG][Proc: 0]p_local_coeffs: call_update: 0 [ms]
[OGL LOG][Proc: 0]p_non_local_coeffs: call_update: 0 [ms]
[OGL LOG][Proc: 0]p: update_local_matrix_data: 26.301 [ms]
[OGL LOG][Proc: 0]p: update_non_local_matrix_data: 0.114 [ms]
[OGL LOG][Proc: 0]p: regenerate_distributed_matrix: 83.84 [ms]
[OGL LOG][Proc: 0]p_matrix: call_update: 86.328 [ms]
[OGL LOG][Proc: 0]p_rhs: call_update: 0.518 [ms]
[OGL LOG][Preconditioner.H:121] Generate preconditioner BJ MaxBlockSize 1
[OGL LOG][Proc: 0]p: init_precond: 3.199 [ms]
[OGL LOG][StoppingCriterion.H:237] Creating stopping criterion with minIter 443 frequency 9
[OGL LOG][Proc: 0]p: generate_solver: 0.001 [ms]
[OGL LOG][Proc: 0]p: solve: 6331.6 [ms]
[OGL LOG][Proc: 0]p: copy_x_back: 1.742 [ms]
[OGL LOG][lduLduBase.H:330] 
Statistics:
	Time per iteration: 8464 [mu s]
	Time per residual norm calculation: 2625.000000 [mu s]
	Time per iteration and DOF: 1.058000 [ns]
	Retrieve results bandwidth 2.296000 [GByte/s]
[OGL LOG][Proc: 0]p: solve_multi_gpu: 6428.39 [ms]
BJcudaGKOCG:  Solving for p, Initial residual = 0.683364, Final residual = 9.1752e-05, No Iterations 748
[INFO] SolveP: 6460.26 [ms]
time step continuity errors : sum local = 9.57992e-09, global = -4.33468e-21, cumulative = -9.57216e-21
[INFO] ContinuityError: 15.223 [ms]
[INFO] CorrectBoundary: 0.57 [ms]
[INFO] PISOStep: 6706.4 [ms]
[INFO] MatrixAssemblyPI: 134.657 [ms]
[INFO] AdjustPhi: 6.826 [ms]
[INFO] ConstrainPressure: 0.003 [ms]
[INFO] MatrixAssemblyPII: 39.139 [ms]
[OGL LOG][Proc: 0]: global_index_init: 0.057 [ms]
[OGL LOG][Proc: 0]p_local_coeffs: call_update: 0 [ms]
[OGL LOG][Proc: 0]p_non_local_coeffs: call_update: 0 [ms]
[OGL LOG][Proc: 0]p: update_local_matrix_data: 26.094 [ms]
[OGL LOG][Proc: 0]p: update_non_local_matrix_data: 0.161 [ms]
[OGL LOG][Proc: 0]p: regenerate_distributed_matrix: 88.729 [ms]
[OGL LOG][Proc: 0]p_matrix: call_update: 89.875 [ms]
[OGL LOG][Proc: 0]p_rhs: call_update: 0.646 [ms]
[OGL LOG][Preconditioner.H:121] Generate preconditioner BJ MaxBlockSize 1
[OGL LOG][Proc: 0]p: init_precond: 2.637 [ms]
[OGL LOG][StoppingCriterion.H:237] Creating stopping criterion with minIter 448 frequency 9
[OGL LOG][Proc: 0]p: generate_solver: 0.002 [ms]
[OGL LOG][Proc: 0]p: solve: 6253.82 [ms]
[OGL LOG][Proc: 0]p: copy_x_back: 1.754 [ms]
[OGL LOG][lduLduBase.H:330] 
Statistics:
	Time per iteration: 8462 [mu s]
	Time per residual norm calculation: 2479.000000 [mu s]
	Time per iteration and DOF: 1.057750 [ns]
	Retrieve results bandwidth 2.280000 [GByte/s]
[OGL LOG][Proc: 0]p: solve_multi_gpu: 6354.37 [ms]
BJcudaGKOCG:  Solving for p, Initial residual = 0.622916, Final residual = 8.58974e-05, No Iterations 739
[INFO] SolveP: 6385.52 [ms]
time step continuity errors : sum local = 8.35827e-09, global = -2.19818e-21, cumulative = -1.17703e-20
[INFO] ContinuityError: 15.875 [ms]
[INFO] CorrectBoundary: 0.302 [ms]
[INFO] PISOStep: 6627.98 [ms]
[INFO] TimeStep: 14413.7 [ms]
ExecutionTime = 134.81 s  ClockTime = 138 s

Time = 0.00175

Courant Number mean: 0.0395541 max: 0.477501
[INFO] MatrixAssemblyU: 125.954 [ms]
DILUPBiCGStab:  Solving for Ux, Initial residual = 0.0174373, Final residual = 0.000513058, No Iterations 5
DILUPBiCGStab:  Solving for Uy, Initial residual = 0.0490612, Final residual = 0.00179752, No Iterations 5
DILUPBiCGStab:  Solving for Uz, Initial residual = 0.260758, Final residual = 0.00779511, No Iterations 5
[INFO] MomentumPredictor: 943.671 [ms]
[INFO] MatrixAssemblyPI: 137.244 [ms]
[INFO] AdjustPhi: 6.152 [ms]
[INFO] ConstrainPressure: 0.002 [ms]
[INFO] MatrixAssemblyPII: 39.354 [ms]
[OGL LOG][Proc: 0]: global_index_init: 0.015 [ms]
[OGL LOG][Proc: 0]p_local_coeffs: call_update: 0 [ms]
[OGL LOG][Proc: 0]p_non_local_coeffs: call_update: 0 [ms]
[OGL LOG][Proc: 0]p: update_local_matrix_data: 25.632 [ms]
[OGL LOG][Proc: 0]p: update_non_local_matrix_data: 0.111 [ms]
[OGL LOG][Proc: 0]p: regenerate_distributed_matrix: 83.67 [ms]
[OGL LOG][Proc: 0]p_matrix: call_update: 85.947 [ms]
[OGL LOG][Proc: 0]p_rhs: call_update: 0.698 [ms]
[OGL LOG][Preconditioner.H:121] Generate preconditioner BJ MaxBlockSize 1
[OGL LOG][Proc: 0]p: init_precond: 3.224 [ms]
[OGL LOG][StoppingCriterion.H:237] Creating stopping criterion with minIter 443 frequency 9
[OGL LOG][Proc: 0]p: generate_solver: 0.001 [ms]
[OGL LOG][Proc: 0]p: solve: 12881 [ms]
[OGL LOG][Proc: 0]p: copy_x_back: 1.763 [ms]
[OGL LOG][lduLduBase.H:330] 
Statistics:
	Time per iteration: 8513 [mu s]
	Time per residual norm calculation: 2624.000000 [mu s]
	Time per iteration and DOF: 1.064125 [ns]
	Retrieve results bandwidth 2.268000 [GByte/s]
[OGL LOG][Proc: 0]p: solve_multi_gpu: 12979.1 [ms]
BJcudaGKOCG:  Solving for p, Initial residual = 0.679369, Final residual = 8.40379e-05, No Iterations 1513
[INFO] SolveP: 13009.6 [ms]
time step continuity errors : sum local = 6.54076e-09, global = -3.19046e-21, cumulative = -1.49608e-20
[INFO] ContinuityError: 17.405 [ms]
[INFO] CorrectBoundary: 2.243 [ms]
[INFO] PISOStep: 13256.8 [ms]
[INFO] MatrixAssemblyPI: 132.304 [ms]
[INFO] AdjustPhi: 8.467 [ms]
[INFO] ConstrainPressure: 0.003 [ms]
[INFO] MatrixAssemblyPII: 38.801 [ms]
[OGL LOG][Proc: 0]: global_index_init: 0.017 [ms]
[OGL LOG][Proc: 0]p_local_coeffs: call_update: 0 [ms]
[OGL LOG][Proc: 0]p_non_local_coeffs: call_update: 0 [ms]
[OGL LOG][Proc: 0]p: update_local_matrix_data: 26.884 [ms]
[OGL LOG][Proc: 0]p: update_non_local_matrix_data: 0.111 [ms]
[OGL LOG][Proc: 0]p: regenerate_distributed_matrix: 87.526 [ms]
[OGL LOG][Proc: 0]p_matrix: call_update: 89.665 [ms]
[OGL LOG][Proc: 0]p_rhs: call_update: 0.537 [ms]
[OGL LOG][Preconditioner.H:121] Generate preconditioner BJ MaxBlockSize 1
[OGL LOG][Proc: 0]p: init_precond: 2.934 [ms]
[OGL LOG][StoppingCriterion.H:237] Creating stopping criterion with minIter 907 frequency 14
[OGL LOG][Proc: 0]p: generate_solver: 0.001 [ms]
[OGL LOG][Proc: 0]p: solve: 12690.7 [ms]
[OGL LOG][Proc: 0]p: copy_x_back: 1.943 [ms]
[OGL LOG][lduLduBase.H:330] 
Statistics:
	Time per iteration: 8387 [mu s]
	Time per residual norm calculation: 2484.000000 [mu s]
	Time per iteration and DOF: 1.048375 [ns]
	Retrieve results bandwidth 2.058000 [GByte/s]
[OGL LOG][Proc: 0]p: solve_multi_gpu: 12790.3 [ms]
BJcudaGKOCG:  Solving for p, Initial residual = 0.620085, Final residual = 7.76248e-05, No Iterations 1513
[INFO] SolveP: 12822.9 [ms]
time step continuity errors : sum local = 6.01017e-09, global = -1.18099e-21, cumulative = -1.61418e-20
[INFO] ContinuityError: 13.207 [ms]
[INFO] CorrectBoundary: 0.287 [ms]
[INFO] PISOStep: 13068.3 [ms]
[INFO] TimeStep: 27410.4 [ms]
ExecutionTime = 162.18 s  ClockTime = 165 s

Time = 0.002

Courant Number mean: 0.0420791 max: 0.479206
[INFO] MatrixAssemblyU: 130.162 [ms]
DILUPBiCGStab:  Solving for Ux, Initial residual = 0.0143008, Final residual = 0.000394686, No Iterations 5
DILUPBiCGStab:  Solving for Uy, Initial residual = 0.0417839, Final residual = 0.00138497, No Iterations 5
DILUPBiCGStab:  Solving for Uz, Initial residual = 0.203601, Final residual = 0.00601916, No Iterations 5
[INFO] MomentumPredictor: 937.349 [ms]
[INFO] MatrixAssemblyPI: 137.525 [ms]
[INFO] AdjustPhi: 6.205 [ms]
[INFO] ConstrainPressure: 0.003 [ms]
[INFO] MatrixAssemblyPII: 39.282 [ms]
[OGL LOG][Proc: 0]: global_index_init: 0.017 [ms]
[OGL LOG][Proc: 0]p_local_coeffs: call_update: 0 [ms]
[OGL LOG][Proc: 0]p_non_local_coeffs: call_update: 0 [ms]
[OGL LOG][Proc: 0]p: update_local_matrix_data: 26.821 [ms]
[OGL LOG][Proc: 0]p: update_non_local_matrix_data: 0.157 [ms]
[OGL LOG][Proc: 0]p: regenerate_distributed_matrix: 84.248 [ms]
[OGL LOG][Proc: 0]p_matrix: call_update: 86.532 [ms]
[OGL LOG][Proc: 0]p_rhs: call_update: 0.666 [ms]
[OGL LOG][Preconditioner.H:121] Generate preconditioner BJ MaxBlockSize 1
[OGL LOG][Proc: 0]p: init_precond: 3.208 [ms]
[OGL LOG][StoppingCriterion.H:237] Creating stopping criterion with minIter 907 frequency 14
[OGL LOG][Proc: 0]p: generate_solver: 0.001 [ms]
[OGL LOG][Proc: 0]p: solve: 12690.8 [ms]
[OGL LOG][Proc: 0]p: copy_x_back: 1.696 [ms]
[OGL LOG][lduLduBase.H:330] 
Statistics:
	Time per iteration: 8387 [mu s]
	Time per residual norm calculation: 2479.000000 [mu s]
	Time per iteration and DOF: 1.048375 [ns]
	Retrieve results bandwidth 2.358000 [GByte/s]
[OGL LOG][Proc: 0]p: solve_multi_gpu: 12787.1 [ms]
BJcudaGKOCG:  Solving for p, Initial residual = 0.588275, Final residual = 9.21284e-05, No Iterations 1513
[INFO] SolveP: 12819.4 [ms]
time step continuity errors : sum local = 6.82199e-09, global = -1.81522e-21, cumulative = -1.7957e-20
[INFO] ContinuityError: 16.303 [ms]
[INFO] CorrectBoundary: 0.939 [ms]
[INFO] PISOStep: 13065.6 [ms]
[INFO] MatrixAssemblyPI: 133.164 [ms]
[INFO] AdjustPhi: 7.682 [ms]
[INFO] ConstrainPressure: 0.002 [ms]
[INFO] MatrixAssemblyPII: 39.172 [ms]
[OGL LOG][Proc: 0]: global_index_init: 0.042 [ms]
[OGL LOG][Proc: 0]p_local_coeffs: call_update: 0 [ms]
[OGL LOG][Proc: 0]p_non_local_coeffs: call_update: 0 [ms]
[OGL LOG][Proc: 0]p: update_local_matrix_data: 26.553 [ms]
[OGL LOG][Proc: 0]p: update_non_local_matrix_data: 0.113 [ms]
[OGL LOG][Proc: 0]p: regenerate_distributed_matrix: 87.599 [ms]
[OGL LOG][Proc: 0]p_matrix: call_update: 89.261 [ms]
[OGL LOG][Proc: 0]p_rhs: call_update: 0.504 [ms]
[OGL LOG][Preconditioner.H:121] Generate preconditioner BJ MaxBlockSize 1
[OGL LOG][Proc: 0]p: init_precond: 2.567 [ms]
[OGL LOG][StoppingCriterion.H:237] Creating stopping criterion with minIter 907 frequency 14
[OGL LOG][Proc: 0]p: generate_solver: 0.001 [ms]
[OGL LOG][Proc: 0]p: solve: 12708.4 [ms]
[OGL LOG][Proc: 0]p: copy_x_back: 1.916 [ms]
[OGL LOG][lduLduBase.H:330] 
Statistics:
	Time per iteration: 8399 [mu s]
	Time per residual norm calculation: 2489.000000 [mu s]
	Time per iteration and DOF: 1.049875 [ns]
	Retrieve results bandwidth 2.087000 [GByte/s]
[OGL LOG][Proc: 0]p: solve_multi_gpu: 12807.4 [ms]
BJcudaGKOCG:  Solving for p, Initial residual = 0.531053, Final residual = 8.5284e-05, No Iterations 1513
[INFO] SolveP: 12839.2 [ms]
time step continuity errors : sum local = 6.30049e-09, global = -2.8321e-21, cumulative = -2.07891e-20
[INFO] ContinuityError: 14.287 [ms]
[INFO] CorrectBoundary: 0.299 [ms]
[INFO] PISOStep: 13082.3 [ms]
[INFO] TimeStep: 27230.4 [ms]
ExecutionTime = 189.38 s  ClockTime = 192 s

Time = 0.00225

Courant Number mean: 0.0443649 max: 0.480355
[INFO] MatrixAssemblyU: 129.462 [ms]
DILUPBiCGStab:  Solving for Ux, Initial residual = 0.012579, Final residual = 0.000325662, No Iterations 5
DILUPBiCGStab:  Solving for Uy, Initial residual = 0.0336534, Final residual = 0.000983903, No Iterations 5
DILUPBiCGStab:  Solving for Uz, Initial residual = 0.163876, Final residual = 0.00558137, No Iterations 5
[INFO] MomentumPredictor: 938.507 [ms]
[INFO] MatrixAssemblyPI: 138.085 [ms]
[INFO] AdjustPhi: 6.288 [ms]
[INFO] ConstrainPressure: 0.003 [ms]
[INFO] MatrixAssemblyPII: 39.975 [ms]
[OGL LOG][Proc: 0]: global_index_init: 0.017 [ms]
[OGL LOG][Proc: 0]p_local_coeffs: call_update: 0 [ms]
[OGL LOG][Proc: 0]p_non_local_coeffs: call_update: 0 [ms]
[OGL LOG][Proc: 0]p: update_local_matrix_data: 26.957 [ms]
[OGL LOG][Proc: 0]p: update_non_local_matrix_data: 0.111 [ms]
[OGL LOG][Proc: 0]p: regenerate_distributed_matrix: 84.427 [ms]
[OGL LOG][Proc: 0]p_matrix: call_update: 85.902 [ms]
[OGL LOG][Proc: 0]p_rhs: call_update: 0.89 [ms]
[OGL LOG][Preconditioner.H:121] Generate preconditioner BJ MaxBlockSize 1
[OGL LOG][Proc: 0]p: init_precond: 2.574 [ms]
[OGL LOG][StoppingCriterion.H:237] Creating stopping criterion with minIter 907 frequency 14
[OGL LOG][Proc: 0]p: generate_solver: 0.001 [ms]
[OGL LOG][Proc: 0]p: solve: 12591.3 [ms]
[OGL LOG][Proc: 0]p: copy_x_back: 1.679 [ms]
[OGL LOG][lduLduBase.H:330] 
Statistics:
	Time per iteration: 8399 [mu s]
	Time per residual norm calculation: 2482.000000 [mu s]
	Time per iteration and DOF: 1.049875 [ns]
	Retrieve results bandwidth 2.382000 [GByte/s]
[OGL LOG][Proc: 0]p: solve_multi_gpu: 12687 [ms]
BJcudaGKOCG:  Solving for p, Initial residual = 0.575428, Final residual = 8.89155e-05, No Iterations 1499
[INFO] SolveP: 12719.4 [ms]
time step continuity errors : sum local = 5.70176e-09, global = -3.31813e-22, cumulative = -2.11209e-20
[INFO] ContinuityError: 17.05 [ms]
[INFO] CorrectBoundary: 0.9 [ms]
[INFO] PISOStep: 12967.1 [ms]
[INFO] MatrixAssemblyPI: 135.682 [ms]
[INFO] AdjustPhi: 6.181 [ms]
[INFO] ConstrainPressure: 0.003 [ms]
[INFO] MatrixAssemblyPII: 39.762 [ms]
[OGL LOG][Proc: 0]: global_index_init: 0.042 [ms]
[OGL LOG][Proc: 0]p_local_coeffs: call_update: 0 [ms]
[OGL LOG][Proc: 0]p_non_local_coeffs: call_update: 0 [ms]
[OGL LOG][Proc: 0]p: update_local_matrix_data: 26.765 [ms]
[OGL LOG][Proc: 0]p: update_non_local_matrix_data: 0.161 [ms]
[OGL LOG][Proc: 0]p: regenerate_distributed_matrix: 87.896 [ms]
[OGL LOG][Proc: 0]p_matrix: call_update: 89.636 [ms]
[OGL LOG][Proc: 0]p_rhs: call_update: 1.415 [ms]
[OGL LOG][Preconditioner.H:121] Generate preconditioner BJ MaxBlockSize 1
[OGL LOG][Proc: 0]p: init_precond: 2.785 [ms]
[OGL LOG][StoppingCriterion.H:237] Creating stopping criterion with minIter 899 frequency 14
[OGL LOG][Proc: 0]p: generate_solver: 0.002 [ms]
[OGL LOG][Proc: 0]p: solve: 12587.5 [ms]
[OGL LOG][Proc: 0]p: copy_x_back: 1.752 [ms]
[OGL LOG][lduLduBase.H:330] 
Statistics:
	Time per iteration: 8397 [mu s]
	Time per residual norm calculation: 2627.000000 [mu s]
	Time per iteration and DOF: 1.049625 [ns]
	Retrieve results bandwidth 2.283000 [GByte/s]
[OGL LOG][Proc: 0]p: solve_multi_gpu: 12687.5 [ms]
BJcudaGKOCG:  Solving for p, Initial residual = 0.514991, Final residual = 8.23132e-05, No Iterations 1499
[INFO] SolveP: 12719.8 [ms]
time step continuity errors : sum local = 5.27637e-09, global = 3.16905e-22, cumulative = -2.0804e-20
[INFO] ContinuityError: 16.414 [ms]
[INFO] CorrectBoundary: 0.615 [ms]
[INFO] PISOStep: 12963.7 [ms]
[INFO] TimeStep: 27014.5 [ms]
ExecutionTime = 216.35 s  ClockTime = 219 s

Time = 0.0025

Courant Number mean: 0.0464191 max: 0.48146
[INFO] MatrixAssemblyU: 127.499 [ms]
DILUPBiCGStab:  Solving for Ux, Initial residual = 0.0108263, Final residual = 0.000262327, No Iterations 5
DILUPBiCGStab:  Solving for Uy, Initial residual = 0.029487, Final residual = 0.000804407, No Iterations 5
DILUPBiCGStab:  Solving for Uz, Initial residual = 0.132531, Final residual = 0.00459682, No Iterations 5
[INFO] MomentumPredictor: 939.359 [ms]
[INFO] MatrixAssemblyPI: 137.271 [ms]
[INFO] AdjustPhi: 6.216 [ms]
[INFO] ConstrainPressure: 0.002 [ms]
[INFO] MatrixAssemblyPII: 39.014 [ms]
[OGL LOG][Proc: 0]: global_index_init: 0.443 [ms]
[OGL LOG][Proc: 0]p_local_coeffs: call_update: 0 [ms]
[OGL LOG][Proc: 0]p_non_local_coeffs: call_update: 0 [ms]
[OGL LOG][Proc: 0]p: update_local_matrix_data: 25.903 [ms]
[OGL LOG][Proc: 0]p: update_non_local_matrix_data: 0.112 [ms]
[OGL LOG][Proc: 0]p: regenerate_distributed_matrix: 83.135 [ms]
[OGL LOG][Proc: 0]p_matrix: call_update: 85.371 [ms]
[OGL LOG][Proc: 0]p_rhs: call_update: 0.876 [ms]
[OGL LOG][Preconditioner.H:121] Generate preconditioner BJ MaxBlockSize 1
[OGL LOG][Proc: 0]p: init_precond: 3.306 [ms]
[OGL LOG][StoppingCriterion.H:237] Creating stopping criterion with minIter 899 frequency 14
[OGL LOG][Proc: 0]p: generate_solver: 0.001 [ms]
[OGL LOG][Proc: 0]p: solve: 12578.3 [ms]
[OGL LOG][Proc: 0]p: copy_x_back: 1.587 [ms]
[OGL LOG][lduLduBase.H:330] 
Statistics:
	Time per iteration: 8391 [mu s]
	Time per residual norm calculation: 2481.000000 [mu s]
	Time per iteration and DOF: 1.048875 [ns]
	Retrieve results bandwidth 2.520000 [GByte/s]
[OGL LOG][Proc: 0]p: solve_multi_gpu: 12673.9 [ms]
BJcudaGKOCG:  Solving for p, Initial residual = 0.498707, Final residual = 8.90035e-05, No Iterations 1499
[INFO] SolveP: 12705.7 [ms]
time step continuity errors : sum local = 5.53951e-09, global = -2.26185e-21, cumulative = -2.30659e-20
[INFO] ContinuityError: 15.81 [ms]
[INFO] CorrectBoundary: 0.97 [ms]
[INFO] PISOStep: 12951 [ms]
[INFO] MatrixAssemblyPI: 133.168 [ms]
[INFO] AdjustPhi: 6.649 [ms]
[INFO] ConstrainPressure: 0.003 [ms]
[INFO] MatrixAssemblyPII: 39.126 [ms]
[OGL LOG][Proc: 0]: global_index_init: 0.047 [ms]
[OGL LOG][Proc: 0]p_local_coeffs: call_update: 0 [ms]
[OGL LOG][Proc: 0]p_non_local_coeffs: call_update: 0 [ms]
[OGL LOG][Proc: 0]p: update_local_matrix_data: 26.895 [ms]
[OGL LOG][Proc: 0]p: update_non_local_matrix_data: 0.119 [ms]
[OGL LOG][Proc: 0]p: regenerate_distributed_matrix: 87.77 [ms]
[OGL LOG][Proc: 0]p_matrix: call_update: 89.674 [ms]
[OGL LOG][Proc: 0]p_rhs: call_update: 0.53 [ms]
[OGL LOG][Preconditioner.H:121] Generate preconditioner BJ MaxBlockSize 1
[OGL LOG][Proc: 0]p: init_precond: 2.945 [ms]
[OGL LOG][StoppingCriterion.H:237] Creating stopping criterion with minIter 899 frequency 14
[OGL LOG][Proc: 0]p: generate_solver: 0.001 [ms]
[OGL LOG][Proc: 0]p: solve: 12575.6 [ms]
[OGL LOG][Proc: 0]p: copy_x_back: 1.946 [ms]
[OGL LOG][lduLduBase.H:330] 
Statistics:
	Time per iteration: 8389 [mu s]
	Time per residual norm calculation: 2470.000000 [mu s]
	Time per iteration and DOF: 1.048625 [ns]
	Retrieve results bandwidth 2.055000 [GByte/s]
[OGL LOG][Proc: 0]p: solve_multi_gpu: 12676.5 [ms]
BJcudaGKOCG:  Solving for p, Initial residual = 0.446288, Final residual = 8.3619e-05, No Iterations 1499
[INFO] SolveP: 12708.8 [ms]
time step continuity errors : sum local = 5.18217e-09, global = -2.46933e-21, cumulative = -2.55352e-20
[INFO] ContinuityError: 14.356 [ms]
[INFO] CorrectBoundary: 0.324 [ms]
[INFO] PISOStep: 12950.6 [ms]
[INFO] TimeStep: 26983.4 [ms]
ExecutionTime = 243.29 s  ClockTime = 246 s

Time = 0.00275

Courant Number mean: 0.0483074 max: 0.482233
[INFO] MatrixAssemblyU: 129.817 [ms]
DILUPBiCGStab:  Solving for Ux, Initial residual = 0.00969633, Final residual = 0.000220371, No Iterations 5
DILUPBiCGStab:  Solving for Uy, Initial residual = 0.0249593, Final residual = 0.000584521, No Iterations 5
DILUPBiCGStab:  Solving for Uz, Initial residual = 0.110575, Final residual = 0.00429626, No Iterations 5
[INFO] MomentumPredictor: 939.73 [ms]
[INFO] MatrixAssemblyPI: 136.449 [ms]
[INFO] AdjustPhi: 6.297 [ms]
[INFO] ConstrainPressure: 0.003 [ms]
[INFO] MatrixAssemblyPII: 39.401 [ms]
[OGL LOG][Proc: 0]: global_index_init: 0.017 [ms]
[OGL LOG][Proc: 0]p_local_coeffs: call_update: 0 [ms]
[OGL LOG][Proc: 0]p_non_local_coeffs: call_update: 0 [ms]
[OGL LOG][Proc: 0]p: update_local_matrix_data: 26.172 [ms]
[OGL LOG][Proc: 0]p: update_non_local_matrix_data: 0.112 [ms]
[OGL LOG][Proc: 0]p: regenerate_distributed_matrix: 84.133 [ms]
[OGL LOG][Proc: 0]p_matrix: call_update: 86.591 [ms]
[OGL LOG][Proc: 0]p_rhs: call_update: 0.581 [ms]
[OGL LOG][Preconditioner.H:121] Generate preconditioner BJ MaxBlockSize 1
[OGL LOG][Proc: 0]p: init_precond: 3.225 [ms]
[OGL LOG][StoppingCriterion.H:237] Creating stopping criterion with minIter 899 frequency 14
[OGL LOG][Proc: 0]p: generate_solver: 0.001 [ms]
[OGL LOG][Proc: 0]p: solve: 12438.2 [ms]
[OGL LOG][Proc: 0]p: copy_x_back: 1.698 [ms]
[OGL LOG][lduLduBase.H:330] 
Statistics:
	Time per iteration: 8375 [mu s]
	Time per residual norm calculation: 2625.000000 [mu s]
	Time per iteration and DOF: 1.046875 [ns]
	Retrieve results bandwidth 2.355000 [GByte/s]
[OGL LOG][Proc: 0]p: solve_multi_gpu: 12535.5 [ms]
BJcudaGKOCG:  Solving for p, Initial residual = 0.474435, Final residual = 8.06318e-05, No Iterations 1485
[INFO] SolveP: 12567.2 [ms]
time step continuity errors : sum local = 4.53345e-09, global = -2.91385e-21, cumulative = -2.8449e-20
[INFO] ContinuityError: 14.602 [ms]
[INFO] CorrectBoundary: 0.367 [ms]
[INFO] PISOStep: 12812 [ms]
[INFO] MatrixAssemblyPI: 133.758 [ms]
[INFO] AdjustPhi: 6.165 [ms]
[INFO] ConstrainPressure: 0.004 [ms]
[INFO] MatrixAssemblyPII: 40.129 [ms]
[OGL LOG][Proc: 0]: global_index_init: 0.015 [ms]
[OGL LOG][Proc: 0]p_local_coeffs: call_update: 0 [ms]
[OGL LOG][Proc: 0]p_non_local_coeffs: call_update: 0 [ms]
[OGL LOG][Proc: 0]p: update_local_matrix_data: 27.273 [ms]
[OGL LOG][Proc: 0]p: update_non_local_matrix_data: 0.155 [ms]
[OGL LOG][Proc: 0]p: regenerate_distributed_matrix: 85.981 [ms]
[OGL LOG][Proc: 0]p_matrix: call_update: 87.319 [ms]
[OGL LOG][Proc: 0]p_rhs: call_update: 0.462 [ms]
[OGL LOG][Preconditioner.H:121] Generate preconditioner BJ MaxBlockSize 1
[OGL LOG][Proc: 0]p: init_precond: 2.892 [ms]
[OGL LOG][StoppingCriterion.H:237] Creating stopping criterion with minIter 891 frequency 14
[OGL LOG][Proc: 0]p: generate_solver: 0.001 [ms]
[OGL LOG][Proc: 0]p: solve: 12469.5 [ms]
[OGL LOG][Proc: 0]p: copy_x_back: 1.58 [ms]
[OGL LOG][lduLduBase.H:330] 
Statistics:
	Time per iteration: 8396 [mu s]
	Time per residual norm calculation: 2485.000000 [mu s]
	Time per iteration and DOF: 1.049500 [ns]
	Retrieve results bandwidth 2.531000 [GByte/s]
[OGL LOG][Proc: 0]p: solve_multi_gpu: 12565.3 [ms]
BJcudaGKOCG:  Solving for p, Initial residual = 0.420471, Final residual = 7.41497e-05, No Iterations 1485
[INFO] SolveP: 12597.9 [ms]
time step continuity errors : sum local = 4.1733e-09, global = -2.65175e-21, cumulative = -3.11008e-20
[INFO] ContinuityError: 17.563 [ms]
[INFO] CorrectBoundary: 1.139 [ms]
[INFO] PISOStep: 12841.5 [ms]
[INFO] TimeStep: 26738.7 [ms]
ExecutionTime = 270 s  ClockTime = 273 s

Time = 0.003

Courant Number mean: 0.0500404 max: 0.483022
[INFO] MatrixAssemblyU: 124.708 [ms]
DILUPBiCGStab:  Solving for Ux, Initial residual = 0.0086067, Final residual = 0.000183879, No Iterations 5
DILUPBiCGStab:  Solving for Uy, Initial residual = 0.0222991, Final residual = 0.000482609, No Iterations 5
DILUPBiCGStab:  Solving for Uz, Initial residual = 0.0926379, Final residual = 0.00366669, No Iterations 5
[INFO] MomentumPredictor: 941.536 [ms]
[INFO] MatrixAssemblyPI: 136.782 [ms]
[INFO] AdjustPhi: 6.148 [ms]
[INFO] ConstrainPressure: 0.002 [ms]
[INFO] MatrixAssemblyPII: 39.354 [ms]
[OGL LOG][Proc: 0]: global_index_init: 0.039 [ms]
[OGL LOG][Proc: 0]p_local_coeffs: call_update: 0 [ms]
[OGL LOG][Proc: 0]p_non_local_coeffs: call_update: 0 [ms]
[OGL LOG][Proc: 0]p: update_local_matrix_data: 26.296 [ms]
[OGL LOG][Proc: 0]p: update_non_local_matrix_data: 0.11 [ms]
[OGL LOG][Proc: 0]p: regenerate_distributed_matrix: 82.622 [ms]
[OGL LOG][Proc: 0]p_matrix: call_update: 84.59 [ms]
[OGL LOG][Proc: 0]p_rhs: call_update: 0.706 [ms]
[OGL LOG][Preconditioner.H:121] Generate preconditioner BJ MaxBlockSize 1
[OGL LOG][Proc: 0]p: init_precond: 2.946 [ms]
[OGL LOG][StoppingCriterion.H:237] Creating stopping criterion with minIter 891 frequency 14
[OGL LOG][Proc: 0]p: generate_solver: 0.001 [ms]
[OGL LOG][Proc: 0]p: solve: 12478.1 [ms]
[OGL LOG][Proc: 0]p: copy_x_back: 2 [ms]
[OGL LOG][lduLduBase.H:330] 
Statistics:
	Time per iteration: 8402 [mu s]
	Time per residual norm calculation: 2481.000000 [mu s]
	Time per iteration and DOF: 1.050250 [ns]
	Retrieve results bandwidth 2.000000 [GByte/s]
[OGL LOG][Proc: 0]p: solve_multi_gpu: 12573.1 [ms]
BJcudaGKOCG:  Solving for p, Initial residual = 0.417132, Final residual = 7.77677e-05, No Iterations 1485
[INFO] SolveP: 12604.9 [ms]
time step continuity errors : sum local = 4.24797e-09, global = -3.16409e-21, cumulative = -3.42649e-20
[INFO] ContinuityError: 14.026 [ms]
[INFO] CorrectBoundary: 0.372 [ms]
[INFO] PISOStep: 12850.1 [ms]
[INFO] MatrixAssemblyPI: 134.883 [ms]
[INFO] AdjustPhi: 6.164 [ms]
[INFO] ConstrainPressure: 0.003 [ms]
[INFO] MatrixAssemblyPII: 39.038 [ms]
[OGL LOG][Proc: 0]: global_index_init: 0.037 [ms]
[OGL LOG][Proc: 0]p_local_coeffs: call_update: 0 [ms]
[OGL LOG][Proc: 0]p_non_local_coeffs: call_update: 0 [ms]
[OGL LOG][Proc: 0]p: update_local_matrix_data: 26.521 [ms]
[OGL LOG][Proc: 0]p: update_non_local_matrix_data: 0.11 [ms]
[OGL LOG][Proc: 0]p: regenerate_distributed_matrix: 86.787 [ms]
[OGL LOG][Proc: 0]p_matrix: call_update: 88.116 [ms]
[OGL LOG][Proc: 0]p_rhs: call_update: 0.505 [ms]
[OGL LOG][Preconditioner.H:121] Generate preconditioner BJ MaxBlockSize 1
[OGL LOG][Proc: 0]p: init_precond: 2.964 [ms]
[OGL LOG][StoppingCriterion.H:237] Creating stopping criterion with minIter 891 frequency 14
[OGL LOG][Proc: 0]p: generate_solver: 0.001 [ms]
[OGL LOG][Proc: 0]p: solve: 12330.8 [ms]
[OGL LOG][Proc: 0]p: copy_x_back: 1.726 [ms]
[OGL LOG][lduLduBase.H:330] 
Statistics:
	Time per iteration: 8382 [mu s]
	Time per residual norm calculation: 2340.000000 [mu s]
	Time per iteration and DOF: 1.047750 [ns]
	Retrieve results bandwidth 2.317000 [GByte/s]
[OGL LOG][Proc: 0]p: solve_multi_gpu: 12428.3 [ms]
BJcudaGKOCG:  Solving for p, Initial residual = 0.370745, Final residual = 9.80967e-05, No Iterations 1471
[INFO] SolveP: 12460.3 [ms]
time step continuity errors : sum local = 5.33466e-09, global = -3.69322e-21, cumulative = -3.79581e-20
[INFO] ContinuityError: 14.51 [ms]
[INFO] CorrectBoundary: 0.318 [ms]
[INFO] PISOStep: 12704.2 [ms]
[INFO] TimeStep: 26635.9 [ms]
ExecutionTime = 296.6 s  ClockTime = 300 s

Time = 0.00325

Courant Number mean: 0.0516504 max: 0.483587
[INFO] MatrixAssemblyU: 126.487 [ms]
DILUPBiCGStab:  Solving for Ux, Initial residual = 0.00781031, Final residual = 0.000157027, No Iterations 5
DILUPBiCGStab:  Solving for Uy, Initial residual = 0.0195186, Final residual = 0.000373233, No Iterations 5
DILUPBiCGStab:  Solving for Uz, Initial residual = 0.0789031, Final residual = 0.00338905, No Iterations 5
[INFO] MomentumPredictor: 941.528 [ms]
[INFO] MatrixAssemblyPI: 137.851 [ms]
[INFO] AdjustPhi: 7.287 [ms]
[INFO] ConstrainPressure: 0.002 [ms]
[INFO] MatrixAssemblyPII: 39.415 [ms]
[OGL LOG][Proc: 0]: global_index_init: 0.012 [ms]
[OGL LOG][Proc: 0]p_local_coeffs: call_update: 0 [ms]
[OGL LOG][Proc: 0]p_non_local_coeffs: call_update: 0 [ms]
[OGL LOG][Proc: 0]p: update_local_matrix_data: 27.065 [ms]
[OGL LOG][Proc: 0]p: update_non_local_matrix_data: 0.175 [ms]
[OGL LOG][Proc: 0]p: regenerate_distributed_matrix: 85.521 [ms]
[OGL LOG][Proc: 0]p_matrix: call_update: 86.258 [ms]
[OGL LOG][Proc: 0]p_rhs: call_update: 0.421 [ms]
[OGL LOG][Preconditioner.H:121] Generate preconditioner BJ MaxBlockSize 1
[OGL LOG][Proc: 0]p: init_precond: 3.246 [ms]
[OGL LOG][StoppingCriterion.H:237] Creating stopping criterion with minIter 882 frequency 14
[OGL LOG][Proc: 0]p: generate_solver: 0.001 [ms]
[OGL LOG][Proc: 0]p: solve: 12466.2 [ms]
[OGL LOG][Proc: 0]p: copy_x_back: 1.789 [ms]
[OGL LOG][lduLduBase.H:330] 
Statistics:
	Time per iteration: 8394 [mu s]
	Time per residual norm calculation: 2478.000000 [mu s]
	Time per iteration and DOF: 1.049250 [ns]
	Retrieve results bandwidth 2.235000 [GByte/s]
[OGL LOG][Proc: 0]p: solve_multi_gpu: 12562 [ms]
BJcudaGKOCG:  Solving for p, Initial residual = 0.386598, Final residual = 7.17602e-05, No Iterations 1485
[INFO] SolveP: 12594.6 [ms]
time step continuity errors : sum local = 3.6633e-09, global = -6.9506e-22, cumulative = -3.86532e-20
[INFO] ContinuityError: 15.882 [ms]
[INFO] CorrectBoundary: 1.27 [ms]
[INFO] PISOStep: 12842.3 [ms]
[INFO] MatrixAssemblyPI: 131.829 [ms]
[INFO] AdjustPhi: 7.49 [ms]
[INFO] ConstrainPressure: 0.003 [ms]
[INFO] MatrixAssemblyPII: 38.553 [ms]
[OGL LOG][Proc: 0]: global_index_init: 0.013 [ms]
[OGL LOG][Proc: 0]p_local_coeffs: call_update: 0 [ms]
[OGL LOG][Proc: 0]p_non_local_coeffs: call_update: 0 [ms]
[OGL LOG][Proc: 0]p: update_local_matrix_data: 26.226 [ms]
[OGL LOG][Proc: 0]p: update_non_local_matrix_data: 0.115 [ms]
[OGL LOG][Proc: 0]p: regenerate_distributed_matrix: 87.019 [ms]
[OGL LOG][Proc: 0]p_matrix: call_update: 89.113 [ms]
[OGL LOG][Proc: 0]p_rhs: call_update: 0.658 [ms]
[OGL LOG][Preconditioner.H:121] Generate preconditioner BJ MaxBlockSize 1
[OGL LOG][Proc: 0]p: init_precond: 2.49 [ms]
[OGL LOG][StoppingCriterion.H:237] Creating stopping criterion with minIter 891 frequency 14
[OGL LOG][Proc: 0]p: generate_solver: 0.001 [ms]
[OGL LOG][Proc: 0]p: solve: 12467.7 [ms]
[OGL LOG][Proc: 0]p: copy_x_back: 1.673 [ms]
[OGL LOG][lduLduBase.H:330] 
Statistics:
	Time per iteration: 8395 [mu s]
	Time per residual norm calculation: 2484.000000 [mu s]
	Time per iteration and DOF: 1.049375 [ns]
	Retrieve results bandwidth 2.390000 [GByte/s]
[OGL LOG][Proc: 0]p: solve_multi_gpu: 12566.9 [ms]
BJcudaGKOCG:  Solving for p, Initial residual = 0.340597, Final residual = 6.53931e-05, No Iterations 1485
[INFO] SolveP: 12598.1 [ms]
time step continuity errors : sum local = 3.34252e-09, global = -3.32798e-21, cumulative = -4.19811e-20
[INFO] ContinuityError: 15.997 [ms]
[INFO] CorrectBoundary: 1.119 [ms]
[INFO] PISOStep: 12839.8 [ms]
[INFO] TimeStep: 26765.1 [ms]
ExecutionTime = 323.32 s  ClockTime = 327 s

Time = 0.0035

Courant Number mean: 0.0531454 max: 0.484182
[INFO] MatrixAssemblyU: 128.194 [ms]
DILUPBiCGStab:  Solving for Ux, Initial residual = 0.00707718, Final residual = 0.000134808, No Iterations 5
DILUPBiCGStab:  Solving for Uy, Initial residual = 0.0177001, Final residual = 0.000308097, No Iterations 5
DILUPBiCGStab:  Solving for Uz, Initial residual = 0.0681398, Final residual = 0.00295599, No Iterations 5
[INFO] MomentumPredictor: 971.863 [ms]
[INFO] MatrixAssemblyPI: 138.457 [ms]
[INFO] AdjustPhi: 6.27 [ms]
[INFO] ConstrainPressure: 0.002 [ms]
[INFO] MatrixAssemblyPII: 39.524 [ms]
[OGL LOG][Proc: 0]: global_index_init: 0.016 [ms]
[OGL LOG][Proc: 0]p_local_coeffs: call_update: 0 [ms]
[OGL LOG][Proc: 0]p_non_local_coeffs: call_update: 0 [ms]
[OGL LOG][Proc: 0]p: update_local_matrix_data: 27.95 [ms]
[OGL LOG][Proc: 0]p: update_non_local_matrix_data: 0.112 [ms]
[OGL LOG][Proc: 0]p: regenerate_distributed_matrix: 84.975 [ms]
[OGL LOG][Proc: 0]p_matrix: call_update: 87.388 [ms]
[OGL LOG][Proc: 0]p_rhs: call_update: 5.368 [ms]
[OGL LOG][Preconditioner.H:121] Generate preconditioner BJ MaxBlockSize 1
[OGL LOG][Proc: 0]p: init_precond: 6.504 [ms]
[OGL LOG][StoppingCriterion.H:237] Creating stopping criterion with minIter 891 frequency 14
[OGL LOG][Proc: 0]p: generate_solver: 0.001 [ms]
[OGL LOG][Proc: 0]p: solve: 12468.8 [ms]
[OGL LOG][Proc: 0]p: copy_x_back: 1.806 [ms]
[OGL LOG][lduLduBase.H:330] 
Statistics:
	Time per iteration: 8396 [mu s]
	Time per residual norm calculation: 2484.000000 [mu s]
	Time per iteration and DOF: 1.049500 [ns]
	Retrieve results bandwidth 2.214000 [GByte/s]
[OGL LOG][Proc: 0]p: solve_multi_gpu: 12579.4 [ms]
BJcudaGKOCG:  Solving for p, Initial residual = 0.344545, Final residual = 6.96775e-05, No Iterations 1485
[INFO] SolveP: 12612.9 [ms]
time step continuity errors : sum local = 3.44118e-09, global = -1.26081e-21, cumulative = -4.3242e-20
[INFO] ContinuityError: 16.199 [ms]
[INFO] CorrectBoundary: 1.311 [ms]
[INFO] PISOStep: 12860.1 [ms]
[INFO] MatrixAssemblyPI: 132.334 [ms]
[INFO] AdjustPhi: 7.803 [ms]
[INFO] ConstrainPressure: 0.003 [ms]
[INFO] MatrixAssemblyPII: 38.814 [ms]
[OGL LOG][Proc: 0]: global_index_init: 0.015 [ms]
[OGL LOG][Proc: 0]p_local_coeffs: call_update: 0 [ms]
[OGL LOG][Proc: 0]p_non_local_coeffs: call_update: 0 [ms]
[OGL LOG][Proc: 0]p: update_local_matrix_data: 26.954 [ms]
[OGL LOG][Proc: 0]p: update_non_local_matrix_data: 0.109 [ms]
[OGL LOG][Proc: 0]p: regenerate_distributed_matrix: 86.76 [ms]
[OGL LOG][Proc: 0]p_matrix: call_update: 88.356 [ms]
[OGL LOG][Proc: 0]p_rhs: call_update: 0.507 [ms]
[OGL LOG][Preconditioner.H:121] Generate preconditioner BJ MaxBlockSize 1
[OGL LOG][Proc: 0]p: init_precond: 2.575 [ms]
[OGL LOG][StoppingCriterion.H:237] Creating stopping criterion with minIter 891 frequency 14
[OGL LOG][Proc: 0]p: generate_solver: 0.001 [ms]
[OGL LOG][Proc: 0]p: solve: 12474 [ms]
[OGL LOG][Proc: 0]p: copy_x_back: 1.995 [ms]
[OGL LOG][lduLduBase.H:330] 
Statistics:
	Time per iteration: 8399 [mu s]
	Time per residual norm calculation: 2468.000000 [mu s]
	Time per iteration and DOF: 1.049875 [ns]
	Retrieve results bandwidth 2.005000 [GByte/s]
[OGL LOG][Proc: 0]p: solve_multi_gpu: 12571.6 [ms]
BJcudaGKOCG:  Solving for p, Initial residual = 0.305115, Final residual = 6.39817e-05, No Iterations 1485
[INFO] SolveP: 12604.4 [ms]
time step continuity errors : sum local = 3.1474e-09, global = -3.03532e-21, cumulative = -4.62773e-20
[INFO] ContinuityError: 14.082 [ms]
[INFO] CorrectBoundary: 0.326 [ms]
[INFO] PISOStep: 12846 [ms]
[INFO] TimeStep: 26822 [ms]
ExecutionTime = 350.09 s  ClockTime = 353 s

Time = 0.00375

Courant Number mean: 0.0545471 max: 0.484622
[INFO] MatrixAssemblyU: 128.047 [ms]
DILUPBiCGStab:  Solving for Ux, Initial residual = 0.0064892, Final residual = 0.000116783, No Iterations 5
DILUPBiCGStab:  Solving for Uy, Initial residual = 0.0158571, Final residual = 0.000257268, No Iterations 5
DILUPBiCGStab:  Solving for Uz, Initial residual = 0.0588179, Final residual = 0.00269142, No Iterations 5
[INFO] MomentumPredictor: 942.788 [ms]
[INFO] MatrixAssemblyPI: 136.032 [ms]
[INFO] AdjustPhi: 8.221 [ms]
[INFO] ConstrainPressure: 0.003 [ms]
[INFO] MatrixAssemblyPII: 38.969 [ms]
[OGL LOG][Proc: 0]: global_index_init: 0.028 [ms]
[OGL LOG][Proc: 0]p_local_coeffs: call_update: 0 [ms]
[OGL LOG][Proc: 0]p_non_local_coeffs: call_update: 0 [ms]
[OGL LOG][Proc: 0]p: update_local_matrix_data: 26.824 [ms]
[OGL LOG][Proc: 0]p: update_non_local_matrix_data: 0.165 [ms]
[OGL LOG][Proc: 0]p: regenerate_distributed_matrix: 83.8 [ms]
[OGL LOG][Proc: 0]p_matrix: call_update: 85.448 [ms]
[OGL LOG][Proc: 0]p_rhs: call_update: 0.774 [ms]
[OGL LOG][Preconditioner.H:121] Generate preconditioner BJ MaxBlockSize 1
[OGL LOG][Proc: 0]p: init_precond: 2.67 [ms]
[OGL LOG][StoppingCriterion.H:237] Creating stopping criterion with minIter 891 frequency 14
[OGL LOG][Proc: 0]p: generate_solver: 0.001 [ms]
[OGL LOG][Proc: 0]p: solve: 12352.5 [ms]
[OGL LOG][Proc: 0]p: copy_x_back: 1.671 [ms]
[OGL LOG][lduLduBase.H:330] 
Statistics:
	Time per iteration: 8397 [mu s]
	Time per residual norm calculation: 2485.000000 [mu s]
	Time per iteration and DOF: 1.049625 [ns]
	Retrieve results bandwidth 2.393000 [GByte/s]
[OGL LOG][Proc: 0]p: solve_multi_gpu: 12447.1 [ms]
BJcudaGKOCG:  Solving for p, Initial residual = 0.312215, Final residual = 8.78019e-05, No Iterations 1471
[INFO] SolveP: 12479.8 [ms]
time step continuity errors : sum local = 4.16051e-09, global = -2.52113e-21, cumulative = -4.87984e-20
[INFO] ContinuityError: 16.655 [ms]
[INFO] CorrectBoundary: 1.058 [ms]
[INFO] PISOStep: 12726.5 [ms]
[INFO] MatrixAssemblyPI: 132.041 [ms]
[INFO] AdjustPhi: 7.846 [ms]
[INFO] ConstrainPressure: 0.003 [ms]
[INFO] MatrixAssemblyPII: 39.204 [ms]
[OGL LOG][Proc: 0]: global_index_init: 0.026 [ms]
[OGL LOG][Proc: 0]p_local_coeffs: call_update: 0 [ms]
[OGL LOG][Proc: 0]p_non_local_coeffs: call_update: 0 [ms]
[OGL LOG][Proc: 0]p: update_local_matrix_data: 26.687 [ms]
[OGL LOG][Proc: 0]p: update_non_local_matrix_data: 0.111 [ms]
[OGL LOG][Proc: 0]p: regenerate_distributed_matrix: 86.886 [ms]
[OGL LOG][Proc: 0]p_matrix: call_update: 88.653 [ms]
[OGL LOG][Proc: 0]p_rhs: call_update: 0.551 [ms]
[OGL LOG][Preconditioner.H:121] Generate preconditioner BJ MaxBlockSize 1
[OGL LOG][Proc: 0]p: init_precond: 2.641 [ms]
[OGL LOG][StoppingCriterion.H:237] Creating stopping criterion with minIter 882 frequency 14
[OGL LOG][Proc: 0]p: generate_solver: 0.001 [ms]
[OGL LOG][Proc: 0]p: solve: 12349 [ms]
[OGL LOG][Proc: 0]p: copy_x_back: 1.826 [ms]
[OGL LOG][lduLduBase.H:330] 
Statistics:
	Time per iteration: 8394 [mu s]
	Time per residual norm calculation: 2466.000000 [mu s]
	Time per iteration and DOF: 1.049250 [ns]
	Retrieve results bandwidth 2.190000 [GByte/s]
[OGL LOG][Proc: 0]p: solve_multi_gpu: 12447.2 [ms]
BJcudaGKOCG:  Solving for p, Initial residual = 0.274373, Final residual = 8.12694e-05, No Iterations 1471
[INFO] SolveP: 12478.9 [ms]
time step continuity errors : sum local = 3.85527e-09, global = -2.50556e-21, cumulative = -5.1304e-20
[INFO] ContinuityError: 14.072 [ms]
[INFO] CorrectBoundary: 0.328 [ms]
[INFO] PISOStep: 12721.2 [ms]
[INFO] TimeStep: 26533.9 [ms]
ExecutionTime = 376.59 s  ClockTime = 380 s

Time = 0.004

Courant Number mean: 0.0558602 max: 0.485085
[INFO] MatrixAssemblyU: 128.795 [ms]
DILUPBiCGStab:  Solving for Ux, Initial residual = 0.0059661, Final residual = 0.000102544, No Iterations 5
DILUPBiCGStab:  Solving for Uy, Initial residual = 0.0145535, Final residual = 0.000216093, No Iterations 5
DILUPBiCGStab:  Solving for Uz, Initial residual = 0.0519436, Final residual = 0.00236621, No Iterations 5
[INFO] MomentumPredictor: 941.556 [ms]
[INFO] MatrixAssemblyPI: 137.027 [ms]
[INFO] AdjustPhi: 6.281 [ms]
[INFO] ConstrainPressure: 0.003 [ms]
[INFO] MatrixAssemblyPII: 39.227 [ms]
[OGL LOG][Proc: 0]: global_index_init: 0.017 [ms]
[OGL LOG][Proc: 0]p_local_coeffs: call_update: 0 [ms]
[OGL LOG][Proc: 0]p_non_local_coeffs: call_update: 0 [ms]
[OGL LOG][Proc: 0]p: update_local_matrix_data: 27.677 [ms]
[OGL LOG][Proc: 0]p: update_non_local_matrix_data: 0.112 [ms]
[OGL LOG][Proc: 0]p: regenerate_distributed_matrix: 83.409 [ms]
[OGL LOG][Proc: 0]p_matrix: call_update: 84.744 [ms]
[OGL LOG][Proc: 0]p_rhs: call_update: 1.586 [ms]
[OGL LOG][Preconditioner.H:121] Generate preconditioner BJ MaxBlockSize 1
[OGL LOG][Proc: 0]p: init_precond: 2.575 [ms]
[OGL LOG][StoppingCriterion.H:237] Creating stopping criterion with minIter 882 frequency 14
[OGL LOG][Proc: 0]p: generate_solver: 0.001 [ms]
[OGL LOG][Proc: 0]p: solve: 12354 [ms]
[OGL LOG][Proc: 0]p: copy_x_back: 1.708 [ms]
[OGL LOG][lduLduBase.H:330] 
Statistics:
	Time per iteration: 8398 [mu s]
	Time per residual norm calculation: 2480.000000 [mu s]
	Time per iteration and DOF: 1.049750 [ns]
	Retrieve results bandwidth 2.341000 [GByte/s]
[OGL LOG][Proc: 0]p: solve_multi_gpu: 12448.5 [ms]
BJcudaGKOCG:  Solving for p, Initial residual = 0.281522, Final residual = 9.851e-05, No Iterations 1471
[INFO] SolveP: 12482 [ms]
time step continuity errors : sum local = 4.49872e-09, global = -2.005e-21, cumulative = -5.3309e-20
[INFO] ContinuityError: 14.48 [ms]
[INFO] CorrectBoundary: 0.278 [ms]
[INFO] PISOStep: 12726.6 [ms]
[INFO] MatrixAssemblyPI: 134.43 [ms]
[INFO] AdjustPhi: 6.472 [ms]
[INFO] ConstrainPressure: 0.003 [ms]
[INFO] MatrixAssemblyPII: 39.975 [ms]
[OGL LOG][Proc: 0]: global_index_init: 0.07 [ms]
[OGL LOG][Proc: 0]p_local_coeffs: call_update: 0 [ms]
[OGL LOG][Proc: 0]p_non_local_coeffs: call_update: 0 [ms]
[OGL LOG][Proc: 0]p: update_local_matrix_data: 27.041 [ms]
[OGL LOG][Proc: 0]p: update_non_local_matrix_data: 0.172 [ms]
[OGL LOG][Proc: 0]p: regenerate_distributed_matrix: 85.488 [ms]
[OGL LOG][Proc: 0]p_matrix: call_update: 87.797 [ms]
[OGL LOG][Proc: 0]p_rhs: call_update: 0.707 [ms]
[OGL LOG][Preconditioner.H:121] Generate preconditioner BJ MaxBlockSize 1
[OGL LOG][Proc: 0]p: init_precond: 2.511 [ms]
[OGL LOG][StoppingCriterion.H:237] Creating stopping criterion with minIter 882 frequency 14
[OGL LOG][Proc: 0]p: generate_solver: 0.001 [ms]
[OGL LOG][Proc: 0]p: solve: 12349.3 [ms]
[OGL LOG][Proc: 0]p: copy_x_back: 1.707 [ms]
[OGL LOG][lduLduBase.H:330] 
Statistics:
	Time per iteration: 8395 [mu s]
	Time per residual norm calculation: 2338.000000 [mu s]
	Time per iteration and DOF: 1.049375 [ns]
	Retrieve results bandwidth 2.343000 [GByte/s]
[OGL LOG][Proc: 0]p: solve_multi_gpu: 12446 [ms]
BJcudaGKOCG:  Solving for p, Initial residual = 0.248538, Final residual = 8.97875e-05, No Iterations 1471
[INFO] SolveP: 12478.5 [ms]
time step continuity errors : sum local = 4.08722e-09, global = -3.32347e-21, cumulative = -5.66324e-20
[INFO] ContinuityError: 16.404 [ms]
[INFO] CorrectBoundary: 0.587 [ms]
[INFO] PISOStep: 12721.8 [ms]
[INFO] TimeStep: 26534.2 [ms]
ExecutionTime = 403.08 s  ClockTime = 406 s

Time = 0.00425

Courant Number mean: 0.0570983 max: 0.485442
[INFO] MatrixAssemblyU: 126.044 [ms]
DILUPBiCGStab:  Solving for Ux, Initial residual = 0.00551679, Final residual = 8.99059e-05, No Iterations 5
DILUPBiCGStab:  Solving for Uy, Initial residual = 0.0132555, Final residual = 0.000192596, No Iterations 5
DILUPBiCGStab:  Solving for Uz, Initial residual = 0.0454176, Final residual = 0.00211738, No Iterations 5
[INFO] MomentumPredictor: 938.538 [ms]
[INFO] MatrixAssemblyPI: 137.348 [ms]
[INFO] AdjustPhi: 6.254 [ms]
[INFO] ConstrainPressure: 0.002 [ms]
[INFO] MatrixAssemblyPII: 39.119 [ms]
[OGL LOG][Proc: 0]: global_index_init: 0.015 [ms]
[OGL LOG][Proc: 0]p_local_coeffs: call_update: 0 [ms]
[OGL LOG][Proc: 0]p_non_local_coeffs: call_update: 0 [ms]
[OGL LOG][Proc: 0]p: update_local_matrix_data: 25.969 [ms]
[OGL LOG][Proc: 0]p: update_non_local_matrix_data: 0.119 [ms]
[OGL LOG][Proc: 0]p: regenerate_distributed_matrix: 84.273 [ms]
[OGL LOG][Proc: 0]p_matrix: call_update: 85.99 [ms]
[OGL LOG][Proc: 0]p_rhs: call_update: 0.458 [ms]
[OGL LOG][Preconditioner.H:121] Generate preconditioner BJ MaxBlockSize 1
[OGL LOG][Proc: 0]p: init_precond: 3.043 [ms]
[OGL LOG][StoppingCriterion.H:237] Creating stopping criterion with minIter 882 frequency 14
[OGL LOG][Proc: 0]p: generate_solver: 0.001 [ms]
[OGL LOG][Proc: 0]p: solve: 7366.51 [ms]
[OGL LOG][Proc: 0]p: copy_x_back: 1.777 [ms]
[OGL LOG][lduLduBase.H:330] 
Statistics:
	Time per iteration: 8342 [mu s]
	Time per residual norm calculation: 2627.000000 [mu s]
	Time per iteration and DOF: 1.042750 [ns]
	Retrieve results bandwidth 2.250000 [GByte/s]
[OGL LOG][Proc: 0]p: solve_multi_gpu: 7463.39 [ms]
BJcudaGKOCG:  Solving for p, Initial residual = 0.251353, Final residual = 8.25473e-05, No Iterations 883
[INFO] SolveP: 7494.36 [ms]
time step continuity errors : sum local = 3.83293e-09, global = -6.16915e-21, cumulative = -6.28016e-20
[INFO] ContinuityError: 15.592 [ms]
[INFO] CorrectBoundary: 0.434 [ms]
[INFO] PISOStep: 7738.69 [ms]
[INFO] MatrixAssemblyPI: 133.83 [ms]
[INFO] AdjustPhi: 6.383 [ms]
[INFO] ConstrainPressure: 0.003 [ms]
[INFO] MatrixAssemblyPII: 39.095 [ms]
[OGL LOG][Proc: 0]: global_index_init: 0.015 [ms]
[OGL LOG][Proc: 0]p_local_coeffs: call_update: 0 [ms]
[OGL LOG][Proc: 0]p_non_local_coeffs: call_update: 0 [ms]
[OGL LOG][Proc: 0]p: update_local_matrix_data: 27.294 [ms]
[OGL LOG][Proc: 0]p: update_non_local_matrix_data: 0.114 [ms]
[OGL LOG][Proc: 0]p: regenerate_distributed_matrix: 86.476 [ms]
[OGL LOG][Proc: 0]p_matrix: call_update: 87.09 [ms]
[OGL LOG][Proc: 0]p_rhs: call_update: 1.719 [ms]
[OGL LOG][Preconditioner.H:121] Generate preconditioner BJ MaxBlockSize 1
[OGL LOG][Proc: 0]p: init_precond: 2.976 [ms]
[OGL LOG][StoppingCriterion.H:237] Creating stopping criterion with minIter 529 frequency 10
[OGL LOG][Proc: 0]p: generate_solver: 0.001 [ms]
[OGL LOG][Proc: 0]p: solve: 5464.93 [ms]
[OGL LOG][Proc: 0]p: copy_x_back: 1.877 [ms]
[OGL LOG][lduLduBase.H:330] 
Statistics:
	Time per iteration: 8394 [mu s]
	Time per residual norm calculation: 2481.000000 [mu s]
	Time per iteration and DOF: 1.049250 [ns]
	Retrieve results bandwidth 2.131000 [GByte/s]
[OGL LOG][Proc: 0]p: solve_multi_gpu: 5562.81 [ms]
BJcudaGKOCG:  Solving for p, Initial residual = 0.220368, Final residual = 9.87819e-05, No Iterations 651
[INFO] SolveP: 5595.21 [ms]
time step continuity errors : sum local = 4.46493e-09, global = -9.20995e-22, cumulative = -6.37226e-20
[INFO] ContinuityError: 14.294 [ms]
[INFO] CorrectBoundary: 0.326 [ms]
[INFO] PISOStep: 5837.2 [ms]
[INFO] TimeStep: 14655.6 [ms]
ExecutionTime = 417.72 s  ClockTime = 421 s

Time = 0.0045

Courant Number mean: 0.0582668 max: 0.485814
[INFO] MatrixAssemblyU: 131.664 [ms]
DILUPBiCGStab:  Solving for Ux, Initial residual = 0.00512874, Final residual = 8.03254e-05, No Iterations 5
DILUPBiCGStab:  Solving for Uy, Initial residual = 0.0122848, Final residual = 0.000166488, No Iterations 5
DILUPBiCGStab:  Solving for Uz, Initial residual = 0.0409222, Final residual = 0.00186518, No Iterations 5
[INFO] MomentumPredictor: 941.507 [ms]
[INFO] MatrixAssemblyPI: 136.408 [ms]
[INFO] AdjustPhi: 8.066 [ms]
[INFO] ConstrainPressure: 0.003 [ms]
[INFO] MatrixAssemblyPII: 40.041 [ms]
[OGL LOG][Proc: 0]: global_index_init: 0.015 [ms]
[OGL LOG][Proc: 0]p_local_coeffs: call_update: 0 [ms]
[OGL LOG][Proc: 0]p_non_local_coeffs: call_update: 0 [ms]
[OGL LOG][Proc: 0]p: update_local_matrix_data: 26.595 [ms]
[OGL LOG][Proc: 0]p: update_non_local_matrix_data: 0.125 [ms]
[OGL LOG][Proc: 0]p: regenerate_distributed_matrix: 85.246 [ms]
[OGL LOG][Proc: 0]p_matrix: call_update: 87.273 [ms]
[OGL LOG][Proc: 0]p_rhs: call_update: 0.729 [ms]
[OGL LOG][Preconditioner.H:121] Generate preconditioner BJ MaxBlockSize 1
[OGL LOG][Proc: 0]p: init_precond: 2.572 [ms]
[OGL LOG][StoppingCriterion.H:237] Creating stopping criterion with minIter 390 frequency 9
[OGL LOG][Proc: 0]p: generate_solver: 0.002 [ms]
[OGL LOG][Proc: 0]p: solve: 5880.32 [ms]
[OGL LOG][Proc: 0]p: copy_x_back: 1.803 [ms]
[OGL LOG][lduLduBase.H:330] 
Statistics:
	Time per iteration: 8473 [mu s]
	Time per residual norm calculation: 2479.000000 [mu s]
	Time per iteration and DOF: 1.059125 [ns]
	Retrieve results bandwidth 2.218000 [GByte/s]
[OGL LOG][Proc: 0]p: solve_multi_gpu: 5978.01 [ms]
BJcudaGKOCG:  Solving for p, Initial residual = 0.227946, Final residual = 9.43188e-05, No Iterations 694
[INFO] SolveP: 6009.76 [ms]
time step continuity errors : sum local = 4.43107e-09, global = -4.43798e-21, cumulative = -6.81606e-20
[INFO] ContinuityError: 15.048 [ms]
[INFO] CorrectBoundary: 0.561 [ms]
[INFO] PISOStep: 6258.46 [ms]
[INFO] MatrixAssemblyPI: 132.055 [ms]
[INFO] AdjustPhi: 7.81 [ms]
[INFO] ConstrainPressure: 0.003 [ms]
[INFO] MatrixAssemblyPII: 39.284 [ms]
[OGL LOG][Proc: 0]: global_index_init: 0.012 [ms]
[OGL LOG][Proc: 0]p_local_coeffs: call_update: 0 [ms]
[OGL LOG][Proc: 0]p_non_local_coeffs: call_update: 0 [ms]
[OGL LOG][Proc: 0]p: update_local_matrix_data: 27.122 [ms]
[OGL LOG][Proc: 0]p: update_non_local_matrix_data: 0.116 [ms]
[OGL LOG][Proc: 0]p: regenerate_distributed_matrix: 85.457 [ms]
[OGL LOG][Proc: 0]p_matrix: call_update: 86.941 [ms]
[OGL LOG][Proc: 0]p_rhs: call_update: 1.374 [ms]
[OGL LOG][Preconditioner.H:121] Generate preconditioner BJ MaxBlockSize 1
[OGL LOG][Proc: 0]p: init_precond: 2.925 [ms]
[OGL LOG][StoppingCriterion.H:237] Creating stopping criterion with minIter 416 frequency 9
[OGL LOG][Proc: 0]p: generate_solver: 0.001 [ms]
[OGL LOG][Proc: 0]p: solve: 5566.38 [ms]
[OGL LOG][Proc: 0]p: copy_x_back: 1.944 [ms]
[OGL LOG][lduLduBase.H:330] 
Statistics:
	Time per iteration: 8459 [mu s]
	Time per residual norm calculation: 2488.000000 [mu s]
	Time per iteration and DOF: 1.057375 [ns]
	Retrieve results bandwidth 2.057000 [GByte/s]
[OGL LOG][Proc: 0]p: solve_multi_gpu: 5663.66 [ms]
BJcudaGKOCG:  Solving for p, Initial residual = 0.200597, Final residual = 9.51404e-05, No Iterations 658
[INFO] SolveP: 5696.72 [ms]
time step continuity errors : sum local = 4.18967e-09, global = -3.68517e-21, cumulative = -7.18457e-20
[INFO] ContinuityError: 13.065 [ms]
[INFO] CorrectBoundary: 0.523 [ms]
[INFO] PISOStep: 5937.61 [ms]
[INFO] TimeStep: 13284.7 [ms]
ExecutionTime = 430.98 s  ClockTime = 434 s

Time = 0.00475

Courant Number mean: 0.0593738 max: 0.486111
[INFO] MatrixAssemblyU: 124.72 [ms]
DILUPBiCGStab:  Solving for Ux, Initial residual = 0.00477145, Final residual = 7.11966e-05, No Iterations 5
DILUPBiCGStab:  Solving for Uy, Initial residual = 0.0113471, Final residual = 0.000153778, No Iterations 5
DILUPBiCGStab:  Solving for Uz, Initial residual = 0.0368451, Final residual = 0.001671, No Iterations 5
[INFO] MomentumPredictor: 941.957 [ms]
[INFO] MatrixAssemblyPI: 136.692 [ms]
[INFO] AdjustPhi: 6.899 [ms]
[INFO] ConstrainPressure: 0.002 [ms]
[INFO] MatrixAssemblyPII: 39.198 [ms]
[OGL LOG][Proc: 0]: global_index_init: 0.012 [ms]
[OGL LOG][Proc: 0]p_local_coeffs: call_update: 0 [ms]
[OGL LOG][Proc: 0]p_non_local_coeffs: call_update: 0 [ms]
[OGL LOG][Proc: 0]p: update_local_matrix_data: 27.019 [ms]
[OGL LOG][Proc: 0]p: update_non_local_matrix_data: 0.16 [ms]
[OGL LOG][Proc: 0]p: regenerate_distributed_matrix: 82.719 [ms]
[OGL LOG][Proc: 0]p_matrix: call_update: 84.49 [ms]
[OGL LOG][Proc: 0]p_rhs: call_update: 0.921 [ms]
[OGL LOG][Preconditioner.H:121] Generate preconditioner BJ MaxBlockSize 1
[OGL LOG][Proc: 0]p: init_precond: 2.91 [ms]
[OGL LOG][StoppingCriterion.H:237] Creating stopping criterion with minIter 394 frequency 9
[OGL LOG][Proc: 0]p: generate_solver: 0.001 [ms]
[OGL LOG][Proc: 0]p: solve: 12511.4 [ms]
[OGL LOG][Proc: 0]p: copy_x_back: 1.719 [ms]
[OGL LOG][lduLduBase.H:330] 
Statistics:
	Time per iteration: 8522 [mu s]
	Time per residual norm calculation: 2612.000000 [mu s]
	Time per iteration and DOF: 1.065250 [ns]
	Retrieve results bandwidth 2.326000 [GByte/s]
[OGL LOG][Proc: 0]p: solve_multi_gpu: 12608.2 [ms]
BJcudaGKOCG:  Solving for p, Initial residual = 0.202002, Final residual = 8.408e-05, No Iterations 1468
[INFO] SolveP: 12641.1 [ms]
time step continuity errors : sum local = 3.58049e-09, global = -2.6646e-21, cumulative = -7.45103e-20
[INFO] ContinuityError: 14.164 [ms]
[INFO] CorrectBoundary: 0.295 [ms]
[INFO] PISOStep: 12885.2 [ms]
[INFO] MatrixAssemblyPI: 134.142 [ms]
[INFO] AdjustPhi: 6.141 [ms]
[INFO] ConstrainPressure: 0.003 [ms]
[INFO] MatrixAssemblyPII: 38.866 [ms]
[OGL LOG][Proc: 0]: global_index_init: 0.013 [ms]
[OGL LOG][Proc: 0]p_local_coeffs: call_update: 0 [ms]
[OGL LOG][Proc: 0]p_non_local_coeffs: call_update: 0 [ms]
[OGL LOG][Proc: 0]p: update_local_matrix_data: 26.32 [ms]
[OGL LOG][Proc: 0]p: update_non_local_matrix_data: 0.113 [ms]
[OGL LOG][Proc: 0]p: regenerate_distributed_matrix: 86.732 [ms]
[OGL LOG][Proc: 0]p_matrix: call_update: 88.874 [ms]
[OGL LOG][Proc: 0]p_rhs: call_update: 0.546 [ms]
[OGL LOG][Preconditioner.H:121] Generate preconditioner BJ MaxBlockSize 1
[OGL LOG][Proc: 0]p: init_precond: 2.936 [ms]
[OGL LOG][StoppingCriterion.H:237] Creating stopping criterion with minIter 880 frequency 13
[OGL LOG][Proc: 0]p: generate_solver: 0.001 [ms]
[OGL LOG][Proc: 0]p: solve: 12339.1 [ms]
[OGL LOG][Proc: 0]p: copy_x_back: 1.705 [ms]
[OGL LOG][lduLduBase.H:330] 
Statistics:
	Time per iteration: 8393 [mu s]
	Time per residual norm calculation: 2472.000000 [mu s]
	Time per iteration and DOF: 1.049125 [ns]
	Retrieve results bandwidth 2.346000 [GByte/s]
[OGL LOG][Proc: 0]p: solve_multi_gpu: 12438.5 [ms]
BJcudaGKOCG:  Solving for p, Initial residual = 0.1767, Final residual = 6.92144e-05, No Iterations 1470
[INFO] SolveP: 12470.1 [ms]
time step continuity errors : sum local = 2.94892e-09, global = -6.36545e-21, cumulative = -8.08758e-20
[INFO] ContinuityError: 15.756 [ms]
[INFO] CorrectBoundary: 0.419 [ms]
[INFO] PISOStep: 12712.3 [ms]
[INFO] TimeStep: 26679.1 [ms]
ExecutionTime = 457.62 s  ClockTime = 461 s

Time = 0.005

Courant Number mean: 0.0604236 max: 0.486415
[INFO] MatrixAssemblyU: 125.65 [ms]
DILUPBiCGStab:  Solving for Ux, Initial residual = 0.00447504, Final residual = 6.44878e-05, No Iterations 5
DILUPBiCGStab:  Solving for Uy, Initial residual = 0.0105965, Final residual = 0.000135802, No Iterations 5
DILUPBiCGStab:  Solving for Uz, Initial residual = 0.0334738, Final residual = 0.00143459, No Iterations 5
[INFO] MomentumPredictor: 940.527 [ms]
[INFO] MatrixAssemblyPI: 139.91 [ms]
[INFO] AdjustPhi: 6.242 [ms]
[INFO] ConstrainPressure: 0.003 [ms]
[INFO] MatrixAssemblyPII: 39.806 [ms]
[OGL LOG][Proc: 0]: global_index_init: 0.022 [ms]
[OGL LOG][Proc: 0]p_local_coeffs: call_update: 0 [ms]
[OGL LOG][Proc: 0]p_non_local_coeffs: call_update: 0 [ms]
[OGL LOG][Proc: 0]p: update_local_matrix_data: 26.631 [ms]
[OGL LOG][Proc: 0]p: update_non_local_matrix_data: 0.112 [ms]
[OGL LOG][Proc: 0]p: regenerate_distributed_matrix: 85.358 [ms]
[OGL LOG][Proc: 0]p_matrix: call_update: 87.558 [ms]
[OGL LOG][Proc: 0]p_rhs: call_update: 0.677 [ms]
[OGL LOG][Preconditioner.H:121] Generate preconditioner BJ MaxBlockSize 1
[OGL LOG][Proc: 0]p: init_precond: 2.934 [ms]
[OGL LOG][StoppingCriterion.H:237] Creating stopping criterion with minIter 882 frequency 14
[OGL LOG][Proc: 0]p: generate_solver: 0.001 [ms]
[OGL LOG][Proc: 0]p: solve: 12353.8 [ms]
[OGL LOG][Proc: 0]p: copy_x_back: 1.914 [ms]
[OGL LOG][lduLduBase.H:330] 
Statistics:
	Time per iteration: 8398 [mu s]
	Time per residual norm calculation: 2487.000000 [mu s]
	Time per iteration and DOF: 1.049750 [ns]
	Retrieve results bandwidth 2.089000 [GByte/s]
[OGL LOG][Proc: 0]p: solve_multi_gpu: 12451.4 [ms]
BJcudaGKOCG:  Solving for p, Initial residual = 0.183465, Final residual = 6.87742e-05, No Iterations 1471
[INFO] SolveP: 12483.4 [ms]
time step continuity errors : sum local = 2.82915e-09, global = -3.9341e-21, cumulative = -8.48099e-20
[INFO] ContinuityError: 16.213 [ms]
[INFO] CorrectBoundary: 1.091 [ms]
[INFO] PISOStep: 12732.8 [ms]
[INFO] MatrixAssemblyPI: 132.556 [ms]
[INFO] AdjustPhi: 7.346 [ms]
[INFO] ConstrainPressure: 0.003 [ms]
[INFO] MatrixAssemblyPII: 38.883 [ms]
[OGL LOG][Proc: 0]: global_index_init: 0.011 [ms]
[OGL LOG][Proc: 0]p_local_coeffs: call_update: 0 [ms]
[OGL LOG][Proc: 0]p_non_local_coeffs: call_update: 0 [ms]
[OGL LOG][Proc: 0]p: update_local_matrix_data: 26.84 [ms]
[OGL LOG][Proc: 0]p: update_non_local_matrix_data: 0.114 [ms]
[OGL LOG][Proc: 0]p: regenerate_distributed_matrix: 88.49 [ms]
[OGL LOG][Proc: 0]p_matrix: call_update: 90.196 [ms]
[OGL LOG][Proc: 0]p_rhs: call_update: 0.54 [ms]
[OGL LOG][Preconditioner.H:121] Generate preconditioner BJ MaxBlockSize 1
[OGL LOG][Proc: 0]p: init_precond: 2.945 [ms]
[OGL LOG][StoppingCriterion.H:237] Creating stopping criterion with minIter 882 frequency 14
[OGL LOG][Proc: 0]p: generate_solver: 0.001 [ms]
[OGL LOG][Proc: 0]p: solve: 12341 [ms]
[OGL LOG][Proc: 0]p: copy_x_back: 1.946 [ms]
[OGL LOG][lduLduBase.H:330] 
Statistics:
	Time per iteration: 8389 [mu s]
	Time per residual norm calculation: 2334.000000 [mu s]
	Time per iteration and DOF: 1.048625 [ns]
	Retrieve results bandwidth 2.055000 [GByte/s]
[OGL LOG][Proc: 0]p: solve_multi_gpu: 12440.9 [ms]
BJcudaGKOCG:  Solving for p, Initial residual = 0.16106, Final residual = 6.28127e-05, No Iterations 1471
[INFO] SolveP: 12473.7 [ms]
time step continuity errors : sum local = 2.57958e-09, global = -6.6917e-21, cumulative = -9.15016e-20
[INFO] ContinuityError: 13.187 [ms]
[INFO] CorrectBoundary: 0.285 [ms]
[INFO] PISOStep: 12714.8 [ms]
[INFO] TimeStep: 26529 [ms]
ExecutionTime = 484.12 s  ClockTime = 488 s

End

Finalising parallel run
