/*---------------------------------------------------------------------------*\
| =========                 |                                                 |
| \\      /  F ield         | OpenFOAM: The Open Source CFD Toolbox           |
|  \\    /   O peration     | Version:  2306                                  |
|   \\  /    A nd           | Website:  www.openfoam.com                      |
|    \\/     M anipulation  |                                                 |
\*---------------------------------------------------------------------------*/
Build  : a6e826bd55-20230630 OPENFOAM=2306 version=v2306
Arch   : "LSB;label=32;scalar=64"
Exec   : icoFoam -parallel -case /tmp/lidDrivenCavity/workspace/6676f191d6a3bea4de3776740b836f05/case
Date   : Jan 09 2024
Time   : 22:32:40
Host   : nla-gpu2.ianm.kit.edu
PID    : 402145
I/O    : uncollated
Case   : /tmp/lidDrivenCavity/workspace/6676f191d6a3bea4de3776740b836f05/case
nProcs : 8
Hosts  :
(
    (nla-gpu2.ianm.kit.edu 8)
)
Pstream initialized with:
    floatTransfer      : false
    nProcsSimpleSum    : 0
    nonBlockingExchange: 0 (tuning: 0)
    exchange algorithm : -1
    commsType          : nonBlocking
    polling iterations : 0
trapFpe: Floating point exception trapping enabled (FOAM_SIGFPE).
fileModificationChecking : Monitoring run-time modified files using timeStampMaster (fileModificationSkew 5, maxFileModificationPolls 20)
allowSystemOperations : Allowing user-supplied system call operations

// * * * * * * * * * * * * * * * * * * * * * * * * * * * * * * * * * * * * * //
Create time

--> FOAM Warning : 
    From void* Foam::dlLibraryTable::openLibrary(const Foam::fileName&, bool)
    in file db/dynamicLibrary/dlLibraryTable/dlLibraryTable.C at line 188
    Could not load "libpetscFoam.so"
libpetscFoam.so: cannot open shared object file: No such file or directory
Create mesh for time = 0


PISO: Operating solver in PISO mode

Reading transportProperties

Reading field p

Reading field U

Reading/calculating face flux field phi


Starting time loop

Time = 0.000166

Courant Number mean: 8.14055e-18 max: 3.11001e-14
[INFO] MatrixAssemblyU: 346.589 [ms]
DILUPBiCGStab:  Solving for Ux, Initial residual = 1, Final residual = 0.0159896, No Iterations 5
DILUPBiCGStab:  Solving for Uy:  solution singularity
DILUPBiCGStab:  Solving for Uz:  solution singularity
[INFO] MomentumPredictor: 1627.25 [ms]
[INFO] MatrixAssemblyPI: 352.608 [ms]
[INFO] AdjustPhi: 21.311 [ms]
[INFO] ConstrainPressure: 0.013 [ms]
[INFO] MatrixAssemblyPII: 99.473 [ms]
[OGL LOG][lduLduBase.H:119] Initialising OGL
	OGL commit:  82f220c+
	Branch: feat/on_device_permute 
	Build type: Release
	Ginkgo version: 1.8.0 ( develop)
	Ginkgo commit: sparse-communicator
	MPI is GPU aware: 1
	Forces host buffer based communication: 0
	CPU ranks per GPU: 1
	Matrix format: Ell
	End OGL_INFO
[OGL LOG][Proc: 0]: global_index_init: 3.417 [ms]
[OGL LOG][Proc: 0]p_local_cols: call_init: 0.036 [ms]
[OGL LOG][Proc: 0]p_local_rows: call_init: 0.011 [ms]
[OGL LOG][Proc: 0]p_local_ldu_map: call_init: 0.145 [ms]
[OGL LOG][Proc: 0]p_local_coeffs: call_init: 0.425 [ms]
[OGL LOG][Proc: 0]p_non_local_cols: call_init: 0.005 [ms]
[OGL LOG][Proc: 0]p_non_local_rows: call_init: 0.002 [ms]
[OGL LOG][Proc: 0]p_non_local_ldu_map: call_init: 0.003 [ms]
[OGL LOG][Proc: 0]p_non_local_coeffs: call_init: 0.002 [ms]
[OGL LOG][Proc: 0]p: init_local_sparsity_pattern: 910.943 [ms]
[OGL LOG][Proc: 0]p: init_non_local_sparsity_pattern: 2.628 [ms]
[OGL LOG][Proc: 0]p: update_local_matrix_data: 95.899 [ms]
[OGL LOG][Proc: 0]p: update_non_local_matrix_data: 0.446 [ms]
[OGL LOG][Proc: 0]device_partition: call_init: 0.173 [ms]
[OGL LOG][Proc: 0]p_matrix: call_init: 231.017 [ms]
[OGL LOG][Proc: 0]p_rhs: call_init: 7.026 [ms]
[OGL LOG][Proc: 0]p_solution: call_init: 2.143 [ms]
[OGL LOG][Proc: 0]p: init_precond: 0.118 [ms]
[OGL LOG][StoppingCriterion.H:239] Creating stopping criterion with minIter 0 frequency 1
[OGL LOG][Proc: 0]p: generate_solver: 0.034 [ms]
[OGL LOG][Proc: 0]p: solve: 5585.96 [ms]
[OGL LOG][Proc: 0]p: copy_x_back: 9.98 [ms]
[OGL LOG][lduLduBase.H:330] 
Statistics:
	Time per iteration: 2297 [mu s]
	Time per residual norm calculation: 1057.000000 [mu s]
	Time per iteration and DOF: 0.085074 [ns]
	Retrieve results bandwidth 2.705000 [GByte/s]
[OGL LOG][Proc: 0]p: solve_multi_gpu: 5838.49 [ms]
nonehipGKOCG:  Solving for p, Initial residual = 1, Final residual = 9.8189e-05, No Iterations 2431
[INFO] SolveP: 7095.66 [ms]
time step continuity errors : sum local = 3.9742e-09, global = 1.94345e-21, cumulative = 1.94345e-21
[INFO] ContinuityError: 51.423 [ms]
[INFO] CorrectBoundary: 1.926 [ms]
[INFO] PISOStep: 7737.77 [ms]
[INFO] MatrixAssemblyPI: 341.682 [ms]
[INFO] AdjustPhi: 20.759 [ms]
[INFO] ConstrainPressure: 0.004 [ms]
[INFO] MatrixAssemblyPII: 98.54 [ms]
[OGL LOG][Proc: 0]: global_index_init: 0.302 [ms]
[OGL LOG][Proc: 0]p_local_coeffs: call_update: 0.004 [ms]
[OGL LOG][Proc: 0]p_non_local_coeffs: call_update: 0 [ms]
[OGL LOG][Proc: 0]p: update_local_matrix_data: 55.054 [ms]
[OGL LOG][Proc: 0]p: update_non_local_matrix_data: 0.35 [ms]
[OGL LOG][Proc: 0]p: regenerate_distributed_matrix: 214.334 [ms]
[OGL LOG][Proc: 0]p_matrix: call_update: 225.011 [ms]
[OGL LOG][Proc: 0]p_rhs: call_update: 13.635 [ms]
[OGL LOG][Proc: 0]p: init_precond: 0.082 [ms]
[OGL LOG][StoppingCriterion.H:239] Creating stopping criterion with minIter 1458 frequency 22
[OGL LOG][Proc: 0]p: generate_solver: 0.004 [ms]
[OGL LOG][Proc: 0]p: solve: 3270.1 [ms]
[OGL LOG][Proc: 0]p: copy_x_back: 11.09 [ms]
[OGL LOG][lduLduBase.H:330] 
Statistics:
	Time per iteration: 1350 [mu s]
	Time per residual norm calculation: 303.000000 [mu s]
	Time per iteration and DOF: 0.050000 [ns]
	Retrieve results bandwidth 2.434000 [GByte/s]
[OGL LOG][Proc: 0]p: solve_multi_gpu: 3525.98 [ms]
nonehipGKOCG:  Solving for p, Initial residual = 0.809676, Final residual = 9.02766e-05, No Iterations 2421
[INFO] SolveP: 3592.43 [ms]
time step continuity errors : sum local = 4.4588e-09, global = -7.96753e-23, cumulative = 1.86378e-21
[INFO] ContinuityError: 51.547 [ms]
[INFO] CorrectBoundary: 1.012 [ms]
[INFO] PISOStep: 4225.94 [ms]
[INFO] TimeStep: 13987.7 [ms]
ExecutionTime = 17.99 s  ClockTime = 16 s

Time = 0.000332

Courant Number mean: 0.0128497 max: 0.426563
[INFO] MatrixAssemblyU: 263.091 [ms]
DILUPBiCGStab:  Solving for Ux, Initial residual = 0.116942, Final residual = 0.00923014, No Iterations 5
DILUPBiCGStab:  Solving for Uy, Initial residual = 0.459876, Final residual = 0.0300233, No Iterations 5
DILUPBiCGStab:  Solving for Uz, Initial residual = 0.995324, Final residual = 0.0718333, No Iterations 5
[INFO] MomentumPredictor: 2979.79 [ms]
[INFO] MatrixAssemblyPI: 351.801 [ms]
[INFO] AdjustPhi: 18.031 [ms]
[INFO] ConstrainPressure: 0.004 [ms]
[INFO] MatrixAssemblyPII: 98.356 [ms]
[OGL LOG][Proc: 0]: global_index_init: 0.074 [ms]
[OGL LOG][Proc: 0]p_local_coeffs: call_update: 0 [ms]
[OGL LOG][Proc: 0]p_non_local_coeffs: call_update: 0 [ms]
[OGL LOG][Proc: 0]p: update_local_matrix_data: 54.176 [ms]
[OGL LOG][Proc: 0]p: update_non_local_matrix_data: 0.35 [ms]
[OGL LOG][Proc: 0]p: regenerate_distributed_matrix: 207.154 [ms]
[OGL LOG][Proc: 0]p_matrix: call_update: 209.169 [ms]
[OGL LOG][Proc: 0]p_rhs: call_update: 12.153 [ms]
[OGL LOG][Proc: 0]p: init_precond: 0.058 [ms]
[OGL LOG][StoppingCriterion.H:239] Creating stopping criterion with minIter 1452 frequency 15
[OGL LOG][Proc: 0]p: generate_solver: 0.005 [ms]
[OGL LOG][Proc: 0]p: solve: 3224.43 [ms]
[OGL LOG][Proc: 0]p: copy_x_back: 9.64 [ms]
[OGL LOG][lduLduBase.H:330] 
Statistics:
	Time per iteration: 1351 [mu s]
	Time per residual norm calculation: 335.000000 [mu s]
	Time per iteration and DOF: 0.050037 [ns]
	Retrieve results bandwidth 2.800000 [GByte/s]
[OGL LOG][Proc: 0]p: solve_multi_gpu: 3462.41 [ms]
nonehipGKOCG:  Solving for p, Initial residual = 0.878213, Final residual = 8.30797e-05, No Iterations 2386
[INFO] SolveP: 3529.34 [ms]
time step continuity errors : sum local = 7.89265e-09, global = -4.4304e-22, cumulative = 1.42074e-21
[INFO] ContinuityError: 47.567 [ms]
[INFO] CorrectBoundary: 1.555 [ms]
[INFO] PISOStep: 4161.28 [ms]
[INFO] MatrixAssemblyPI: 345.598 [ms]
[INFO] AdjustPhi: 17.892 [ms]
[INFO] ConstrainPressure: 0.005 [ms]
[INFO] MatrixAssemblyPII: 98.22 [ms]
[OGL LOG][Proc: 0]: global_index_init: 0.239 [ms]
[OGL LOG][Proc: 0]p_local_coeffs: call_update: 0 [ms]
[OGL LOG][Proc: 0]p_non_local_coeffs: call_update: 0 [ms]
[OGL LOG][Proc: 0]p: update_local_matrix_data: 57.463 [ms]
[OGL LOG][Proc: 0]p: update_non_local_matrix_data: 0.334 [ms]
[OGL LOG][Proc: 0]p: regenerate_distributed_matrix: 197.482 [ms]
[OGL LOG][Proc: 0]p_matrix: call_update: 199.602 [ms]
[OGL LOG][Proc: 0]p_rhs: call_update: 15.159 [ms]
[OGL LOG][Proc: 0]p: init_precond: 0.07 [ms]
[OGL LOG][StoppingCriterion.H:239] Creating stopping criterion with minIter 1431 frequency 15
[OGL LOG][Proc: 0]p: generate_solver: 0.004 [ms]
[OGL LOG][Proc: 0]p: solve: 3280.85 [ms]
[OGL LOG][Proc: 0]p: copy_x_back: 9.471 [ms]
[OGL LOG][lduLduBase.H:330] 
Statistics:
	Time per iteration: 1375 [mu s]
	Time per residual norm calculation: 307.000000 [mu s]
	Time per iteration and DOF: 0.050926 [ns]
	Retrieve results bandwidth 2.850000 [GByte/s]
[OGL LOG][Proc: 0]p: solve_multi_gpu: 3512.47 [ms]
nonehipGKOCG:  Solving for p, Initial residual = 0.826378, Final residual = 7.36857e-05, No Iterations 2386
[INFO] SolveP: 3582.6 [ms]
time step continuity errors : sum local = 7.12952e-09, global = 1.80413e-22, cumulative = 1.60115e-21
[INFO] ContinuityError: 50.423 [ms]
[INFO] CorrectBoundary: 1.486 [ms]
[INFO] PISOStep: 4212.8 [ms]
[INFO] TimeStep: 11661.1 [ms]
ExecutionTime = 31.66 s  ClockTime = 27 s

Time = 0.000498

Courant Number mean: 0.0198261 max: 0.491805
[INFO] MatrixAssemblyU: 260.452 [ms]
DILUPBiCGStab:  Solving for Ux, Initial residual = 0.0544583, Final residual = 0.00348872, No Iterations 5
DILUPBiCGStab:  Solving for Uy, Initial residual = 0.226376, Final residual = 0.0156761, No Iterations 5
DILUPBiCGStab:  Solving for Uz, Initial residual = 0.854948, Final residual = 0.0552556, No Iterations 5
[INFO] MomentumPredictor: 2970.87 [ms]
[INFO] MatrixAssemblyPI: 344.411 [ms]
[INFO] AdjustPhi: 18.864 [ms]
[INFO] ConstrainPressure: 0.005 [ms]
[INFO] MatrixAssemblyPII: 97.761 [ms]
[OGL LOG][Proc: 0]: global_index_init: 0.119 [ms]
[OGL LOG][Proc: 0]p_local_coeffs: call_update: 0 [ms]
[OGL LOG][Proc: 0]p_non_local_coeffs: call_update: 0 [ms]
[OGL LOG][Proc: 0]p: update_local_matrix_data: 54.151 [ms]
[OGL LOG][Proc: 0]p: update_non_local_matrix_data: 0.238 [ms]
[OGL LOG][Proc: 0]p: regenerate_distributed_matrix: 192.361 [ms]
[OGL LOG][Proc: 0]p_matrix: call_update: 194.328 [ms]
[OGL LOG][Proc: 0]p_rhs: call_update: 11.845 [ms]
[OGL LOG][Proc: 0]p: init_precond: 0.063 [ms]
[OGL LOG][StoppingCriterion.H:239] Creating stopping criterion with minIter 1431 frequency 15
[OGL LOG][Proc: 0]p: generate_solver: 0.004 [ms]
[OGL LOG][Proc: 0]p: solve: 2008.31 [ms]
[OGL LOG][Proc: 0]p: copy_x_back: 9.328 [ms]
[OGL LOG][lduLduBase.H:330] 
Statistics:
	Time per iteration: 1393 [mu s]
	Time per residual norm calculation: 347.000000 [mu s]
	Time per iteration and DOF: 0.051593 [ns]
	Retrieve results bandwidth 2.894000 [GByte/s]
[OGL LOG][Proc: 0]p: solve_multi_gpu: 2230.05 [ms]
nonehipGKOCG:  Solving for p, Initial residual = 0.913758, Final residual = 7.61788e-05, No Iterations 1441
[INFO] SolveP: 2295.74 [ms]
time step continuity errors : sum local = 8.42623e-09, global = -4.62055e-23, cumulative = 1.55494e-21
[INFO] ContinuityError: 49.152 [ms]
[INFO] CorrectBoundary: 2.047 [ms]
[INFO] PISOStep: 2920.41 [ms]
[INFO] MatrixAssemblyPI: 335.881 [ms]
[INFO] AdjustPhi: 19.734 [ms]
[INFO] ConstrainPressure: 0.004 [ms]
[INFO] MatrixAssemblyPII: 98.426 [ms]
[OGL LOG][Proc: 0]: global_index_init: 0.041 [ms]
[OGL LOG][Proc: 0]p_local_coeffs: call_update: 0 [ms]
[OGL LOG][Proc: 0]p_non_local_coeffs: call_update: 0 [ms]
[OGL LOG][Proc: 0]p: update_local_matrix_data: 55.198 [ms]
[OGL LOG][Proc: 0]p: update_non_local_matrix_data: 0.349 [ms]
[OGL LOG][Proc: 0]p: regenerate_distributed_matrix: 183.713 [ms]
[OGL LOG][Proc: 0]p_matrix: call_update: 186.823 [ms]
[OGL LOG][Proc: 0]p_rhs: call_update: 7.388 [ms]
[OGL LOG][Proc: 0]p: init_precond: 0.07 [ms]
[OGL LOG][StoppingCriterion.H:239] Creating stopping criterion with minIter 864 frequency 12
[OGL LOG][Proc: 0]p: generate_solver: 0.005 [ms]
[OGL LOG][Proc: 0]p: solve: 1647 [ms]
[OGL LOG][Proc: 0]p: copy_x_back: 9.575 [ms]
[OGL LOG][lduLduBase.H:330] 
Statistics:
	Time per iteration: 1428 [mu s]
	Time per residual norm calculation: 333.000000 [mu s]
	Time per iteration and DOF: 0.052889 [ns]
	Retrieve results bandwidth 2.819000 [GByte/s]
[OGL LOG][Proc: 0]p: solve_multi_gpu: 1855.59 [ms]
nonehipGKOCG:  Solving for p, Initial residual = 0.882691, Final residual = 9.57177e-05, No Iterations 1153
[INFO] SolveP: 1921.59 [ms]
time step continuity errors : sum local = 9.99358e-09, global = 5.56776e-22, cumulative = 2.11172e-21
[INFO] ContinuityError: 50.88 [ms]
[INFO] CorrectBoundary: 1.171 [ms]
[INFO] PISOStep: 2542.36 [ms]
[INFO] TimeStep: 8740.19 [ms]
ExecutionTime = 41.46 s  ClockTime = 36 s

Time = 0.000664

Courant Number mean: 0.0239197 max: 0.47201
[INFO] MatrixAssemblyU: 264.134 [ms]
DILUPBiCGStab:  Solving for Ux, Initial residual = 0.0384975, Final residual = 0.00279683, No Iterations 5
DILUPBiCGStab:  Solving for Uy, Initial residual = 0.174095, Final residual = 0.0125979, No Iterations 5
DILUPBiCGStab:  Solving for Uz, Initial residual = 0.730075, Final residual = 0.0385546, No Iterations 5
[INFO] MomentumPredictor: 2956.18 [ms]
[INFO] MatrixAssemblyPI: 344.876 [ms]
[INFO] AdjustPhi: 20.391 [ms]
[INFO] ConstrainPressure: 0.005 [ms]
[INFO] MatrixAssemblyPII: 100.624 [ms]
[OGL LOG][Proc: 0]: global_index_init: 0.082 [ms]
[OGL LOG][Proc: 0]p_local_coeffs: call_update: 0 [ms]
[OGL LOG][Proc: 0]p_non_local_coeffs: call_update: 0 [ms]
[OGL LOG][Proc: 0]p: update_local_matrix_data: 61.603 [ms]
[OGL LOG][Proc: 0]p: update_non_local_matrix_data: 0.253 [ms]
[OGL LOG][Proc: 0]p: regenerate_distributed_matrix: 179.849 [ms]
[OGL LOG][Proc: 0]p_matrix: call_update: 182.745 [ms]
[OGL LOG][Proc: 0]p_rhs: call_update: 22.771 [ms]
[OGL LOG][Proc: 0]p: init_precond: 0.055 [ms]
[OGL LOG][StoppingCriterion.H:239] Creating stopping criterion with minIter 691 frequency 10
[OGL LOG][Proc: 0]p: generate_solver: 0.005 [ms]
[OGL LOG][Proc: 0]p: solve: 1644.08 [ms]
[OGL LOG][Proc: 0]p: copy_x_back: 9.896 [ms]
[OGL LOG][lduLduBase.H:330] 
Statistics:
	Time per iteration: 1416 [mu s]
	Time per residual norm calculation: 336.000000 [mu s]
	Time per iteration and DOF: 0.052444 [ns]
	Retrieve results bandwidth 2.728000 [GByte/s]
[OGL LOG][Proc: 0]p: solve_multi_gpu: 1871.64 [ms]
nonehipGKOCG:  Solving for p, Initial residual = 0.890286, Final residual = 9.5014e-05, No Iterations 1161
[INFO] SolveP: 1944.04 [ms]
time step continuity errors : sum local = 1.13496e-08, global = 5.63528e-22, cumulative = 2.67525e-21
[INFO] ContinuityError: 49.63 [ms]
[INFO] CorrectBoundary: 0.844 [ms]
[INFO] PISOStep: 2574.55 [ms]
[INFO] MatrixAssemblyPI: 337.439 [ms]
[INFO] AdjustPhi: 22.823 [ms]
[INFO] ConstrainPressure: 0.005 [ms]
[INFO] MatrixAssemblyPII: 98.213 [ms]
[OGL LOG][Proc: 0]: global_index_init: 0.308 [ms]
[OGL LOG][Proc: 0]p_local_coeffs: call_update: 0 [ms]
[OGL LOG][Proc: 0]p_non_local_coeffs: call_update: 0 [ms]
[OGL LOG][Proc: 0]p: update_local_matrix_data: 71.657 [ms]
[OGL LOG][Proc: 0]p: update_non_local_matrix_data: 0.251 [ms]
[OGL LOG][Proc: 0]p: regenerate_distributed_matrix: 180.923 [ms]
[OGL LOG][Proc: 0]p_matrix: call_update: 182.965 [ms]
[OGL LOG][Proc: 0]p_rhs: call_update: 14.483 [ms]
[OGL LOG][Proc: 0]p: init_precond: 0.055 [ms]
[OGL LOG][StoppingCriterion.H:239] Creating stopping criterion with minIter 696 frequency 10
[OGL LOG][Proc: 0]p: generate_solver: 0.005 [ms]
[OGL LOG][Proc: 0]p: solve: 1622.59 [ms]
[OGL LOG][Proc: 0]p: copy_x_back: 9.339 [ms]
[OGL LOG][lduLduBase.H:330] 
Statistics:
	Time per iteration: 1409 [mu s]
	Time per residual norm calculation: 320.000000 [mu s]
	Time per iteration and DOF: 0.052185 [ns]
	Retrieve results bandwidth 2.891000 [GByte/s]
[OGL LOG][Proc: 0]p: solve_multi_gpu: 1836.31 [ms]
nonehipGKOCG:  Solving for p, Initial residual = 0.830231, Final residual = 8.90449e-05, No Iterations 1151
[INFO] SolveP: 1920.4 [ms]
time step continuity errors : sum local = 1.03154e-08, global = -5.74882e-22, cumulative = 2.10037e-21
[INFO] ContinuityError: 49.428 [ms]
[INFO] CorrectBoundary: 1.867 [ms]
[INFO] PISOStep: 2541.79 [ms]
[INFO] TimeStep: 8383.5 [ms]
ExecutionTime = 50.79 s  ClockTime = 45 s

Time = 0.00083

Courant Number mean: 0.0274473 max: 0.504973
[INFO] MatrixAssemblyU: 260.613 [ms]
DILUPBiCGStab:  Solving for Ux, Initial residual = 0.0323958, Final residual = 0.00238069, No Iterations 5
DILUPBiCGStab:  Solving for Uy, Initial residual = 0.129655, Final residual = 0.0105549, No Iterations 5
DILUPBiCGStab:  Solving for Uz, Initial residual = 0.676251, Final residual = 0.0332734, No Iterations 5
[INFO] MomentumPredictor: 2966.51 [ms]
[INFO] MatrixAssemblyPI: 344.956 [ms]
[INFO] AdjustPhi: 21.839 [ms]
[INFO] ConstrainPressure: 0.005 [ms]
[INFO] MatrixAssemblyPII: 98.315 [ms]
[OGL LOG][Proc: 0]: global_index_init: 0.141 [ms]
[OGL LOG][Proc: 0]p_local_coeffs: call_update: 0 [ms]
[OGL LOG][Proc: 0]p_non_local_coeffs: call_update: 0 [ms]
[OGL LOG][Proc: 0]p: update_local_matrix_data: 55.464 [ms]
[OGL LOG][Proc: 0]p: update_non_local_matrix_data: 0.35 [ms]
[OGL LOG][Proc: 0]p: regenerate_distributed_matrix: 187.71 [ms]
[OGL LOG][Proc: 0]p_matrix: call_update: 189.809 [ms]
[OGL LOG][Proc: 0]p_rhs: call_update: 15.494 [ms]
[OGL LOG][Proc: 0]p: init_precond: 0.057 [ms]
[OGL LOG][StoppingCriterion.H:239] Creating stopping criterion with minIter 690 frequency 10
[OGL LOG][Proc: 0]p: generate_solver: 0.004 [ms]
[OGL LOG][Proc: 0]p: solve: 3250.2 [ms]
[OGL LOG][Proc: 0]p: copy_x_back: 9.65 [ms]
[OGL LOG][lduLduBase.H:330] 
Statistics:
	Time per iteration: 1365 [mu s]
	Time per residual norm calculation: 309.000000 [mu s]
	Time per iteration and DOF: 0.050556 [ns]
	Retrieve results bandwidth 2.797000 [GByte/s]
[OGL LOG][Proc: 0]p: solve_multi_gpu: 3480.05 [ms]
nonehipGKOCG:  Solving for p, Initial residual = 0.910505, Final residual = 8.70496e-05, No Iterations 2381
[INFO] SolveP: 3549.04 [ms]
time step continuity errors : sum local = 9.60136e-09, global = 1.01872e-21, cumulative = 3.11909e-21
[INFO] ContinuityError: 50.481 [ms]
[INFO] CorrectBoundary: 1.521 [ms]
[INFO] PISOStep: 4178.51 [ms]
[INFO] MatrixAssemblyPI: 336.533 [ms]
[INFO] AdjustPhi: 20.846 [ms]
[INFO] ConstrainPressure: 0.005 [ms]
[INFO] MatrixAssemblyPII: 98.522 [ms]
[OGL LOG][Proc: 0]: global_index_init: 0.07 [ms]
[OGL LOG][Proc: 0]p_local_coeffs: call_update: 0 [ms]
[OGL LOG][Proc: 0]p_non_local_coeffs: call_update: 0 [ms]
[OGL LOG][Proc: 0]p: update_local_matrix_data: 54.92 [ms]
[OGL LOG][Proc: 0]p: update_non_local_matrix_data: 0.263 [ms]
[OGL LOG][Proc: 0]p: regenerate_distributed_matrix: 194.848 [ms]
[OGL LOG][Proc: 0]p_matrix: call_update: 196.807 [ms]
[OGL LOG][Proc: 0]p_rhs: call_update: 16.249 [ms]
[OGL LOG][Proc: 0]p: init_precond: 0.056 [ms]
[OGL LOG][StoppingCriterion.H:239] Creating stopping criterion with minIter 1428 frequency 15
[OGL LOG][Proc: 0]p: generate_solver: 0.003 [ms]
[OGL LOG][Proc: 0]p: solve: 3225.38 [ms]
[OGL LOG][Proc: 0]p: copy_x_back: 9.541 [ms]
[OGL LOG][lduLduBase.H:330] 
Statistics:
	Time per iteration: 1351 [mu s]
	Time per residual norm calculation: 336.000000 [mu s]
	Time per iteration and DOF: 0.050037 [ns]
	Retrieve results bandwidth 2.829000 [GByte/s]
[OGL LOG][Proc: 0]p: solve_multi_gpu: 3452.43 [ms]
nonehipGKOCG:  Solving for p, Initial residual = 0.872722, Final residual = 7.50058e-05, No Iterations 2386
[INFO] SolveP: 3518.06 [ms]
time step continuity errors : sum local = 8.1666e-09, global = -8.35745e-22, cumulative = 2.28334e-21
[INFO] ContinuityError: 48.44 [ms]
[INFO] CorrectBoundary: 1.646 [ms]
[INFO] PISOStep: 4142.25 [ms]
[INFO] TimeStep: 11592.6 [ms]
ExecutionTime = 64.39 s  ClockTime = 56 s

Time = 0.000996

Courant Number mean: 0.0301893 max: 0.47838
[INFO] MatrixAssemblyU: 266.247 [ms]
DILUPBiCGStab:  Solving for Ux, Initial residual = 0.0270656, Final residual = 0.00213772, No Iterations 5
DILUPBiCGStab:  Solving for Uy, Initial residual = 0.111896, Final residual = 0.00833877, No Iterations 5
DILUPBiCGStab:  Solving for Uz, Initial residual = 0.579657, Final residual = 0.0255675, No Iterations 5
[INFO] MomentumPredictor: 2976.02 [ms]
[INFO] MatrixAssemblyPI: 346.575 [ms]
[INFO] AdjustPhi: 17.837 [ms]
[INFO] ConstrainPressure: 0.004 [ms]
[INFO] MatrixAssemblyPII: 99.38 [ms]
[OGL LOG][Proc: 0]: global_index_init: 0.044 [ms]
[OGL LOG][Proc: 0]p_local_coeffs: call_update: 0 [ms]
[OGL LOG][Proc: 0]p_non_local_coeffs: call_update: 0 [ms]
[OGL LOG][Proc: 0]p: update_local_matrix_data: 69.163 [ms]
[OGL LOG][Proc: 0]p: update_non_local_matrix_data: 0.359 [ms]
[OGL LOG][Proc: 0]p: regenerate_distributed_matrix: 195.388 [ms]
[OGL LOG][Proc: 0]p_matrix: call_update: 197.365 [ms]
[OGL LOG][Proc: 0]p_rhs: call_update: 11.933 [ms]
[OGL LOG][Proc: 0]p: init_precond: 0.058 [ms]
[OGL LOG][StoppingCriterion.H:239] Creating stopping criterion with minIter 1431 frequency 15
[OGL LOG][Proc: 0]p: generate_solver: 0.005 [ms]
[OGL LOG][Proc: 0]p: solve: 3215.95 [ms]
[OGL LOG][Proc: 0]p: copy_x_back: 9.357 [ms]
[OGL LOG][lduLduBase.H:330] 
Statistics:
	Time per iteration: 1347 [mu s]
	Time per residual norm calculation: 355.000000 [mu s]
	Time per iteration and DOF: 0.049889 [ns]
	Retrieve results bandwidth 2.885000 [GByte/s]
[OGL LOG][Proc: 0]p: solve_multi_gpu: 3440.14 [ms]
nonehipGKOCG:  Solving for p, Initial residual = 0.887874, Final residual = 7.24767e-05, No Iterations 2386
[INFO] SolveP: 3520.54 [ms]
time step continuity errors : sum local = 8.15575e-09, global = 1.84921e-22, cumulative = 2.46826e-21
[INFO] ContinuityError: 49.135 [ms]
[INFO] CorrectBoundary: 1.372 [ms]
[INFO] PISOStep: 4147.83 [ms]
[INFO] MatrixAssemblyPI: 336.314 [ms]
[INFO] AdjustPhi: 19.917 [ms]
[INFO] ConstrainPressure: 0.005 [ms]
[INFO] MatrixAssemblyPII: 98.169 [ms]
[OGL LOG][Proc: 0]: global_index_init: 0.108 [ms]
[OGL LOG][Proc: 0]p_local_coeffs: call_update: 0 [ms]
[OGL LOG][Proc: 0]p_non_local_coeffs: call_update: 0 [ms]
[OGL LOG][Proc: 0]p: update_local_matrix_data: 63.268 [ms]
[OGL LOG][Proc: 0]p: update_non_local_matrix_data: 0.252 [ms]
[OGL LOG][Proc: 0]p: regenerate_distributed_matrix: 200.061 [ms]
[OGL LOG][Proc: 0]p_matrix: call_update: 203.563 [ms]
[OGL LOG][Proc: 0]p_rhs: call_update: 13.154 [ms]
[OGL LOG][Proc: 0]p: init_precond: 0.061 [ms]
[OGL LOG][StoppingCriterion.H:239] Creating stopping criterion with minIter 1431 frequency 17
[OGL LOG][Proc: 0]p: generate_solver: 0.004 [ms]
[OGL LOG][Proc: 0]p: solve: 3202.44 [ms]
[OGL LOG][Proc: 0]p: copy_x_back: 9.546 [ms]
[OGL LOG][lduLduBase.H:330] 
Statistics:
	Time per iteration: 1344 [mu s]
	Time per residual norm calculation: 322.000000 [mu s]
	Time per iteration and DOF: 0.049778 [ns]
	Retrieve results bandwidth 2.828000 [GByte/s]
[OGL LOG][Proc: 0]p: solve_multi_gpu: 3438.15 [ms]
nonehipGKOCG:  Solving for p, Initial residual = 0.824769, Final residual = 7.45773e-05, No Iterations 2381
[INFO] SolveP: 3513.49 [ms]
time step continuity errors : sum local = 8.51999e-09, global = 4.14892e-22, cumulative = 2.88315e-21
[INFO] ContinuityError: 51.801 [ms]
[INFO] CorrectBoundary: 2.631 [ms]
[INFO] PISOStep: 4134.6 [ms]
[INFO] TimeStep: 11569.1 [ms]
ExecutionTime = 77.97 s  ClockTime = 68 s

Time = 0.001162

Courant Number mean: 0.0326682 max: 0.511865
[INFO] MatrixAssemblyU: 262.106 [ms]
DILUPBiCGStab:  Solving for Ux, Initial residual = 0.0245504, Final residual = 0.00196806, No Iterations 5
DILUPBiCGStab:  Solving for Uy, Initial residual = 0.0982921, Final residual = 0.00769257, No Iterations 5
DILUPBiCGStab:  Solving for Uz, Initial residual = 0.552904, Final residual = 0.0227942, No Iterations 5
[INFO] MomentumPredictor: 2957.44 [ms]
[INFO] MatrixAssemblyPI: 343.576 [ms]
[INFO] AdjustPhi: 19.269 [ms]
[INFO] ConstrainPressure: 0.005 [ms]
[INFO] MatrixAssemblyPII: 102.642 [ms]
[OGL LOG][Proc: 0]: global_index_init: 0.044 [ms]
[OGL LOG][Proc: 0]p_local_coeffs: call_update: 0 [ms]
[OGL LOG][Proc: 0]p_non_local_coeffs: call_update: 0 [ms]
[OGL LOG][Proc: 0]p: update_local_matrix_data: 55.909 [ms]
[OGL LOG][Proc: 0]p: update_non_local_matrix_data: 0.286 [ms]
[OGL LOG][Proc: 0]p: regenerate_distributed_matrix: 201.944 [ms]
[OGL LOG][Proc: 0]p_matrix: call_update: 203.913 [ms]
[OGL LOG][Proc: 0]p_rhs: call_update: 14.066 [ms]
[OGL LOG][Proc: 0]p: init_precond: 0.058 [ms]
[OGL LOG][StoppingCriterion.H:239] Creating stopping criterion with minIter 1428 frequency 15
[OGL LOG][Proc: 0]p: generate_solver: 0.005 [ms]
[OGL LOG][Proc: 0]p: solve: 3096.43 [ms]
[OGL LOG][Proc: 0]p: copy_x_back: 9.399 [ms]
[OGL LOG][lduLduBase.H:330] 
Statistics:
	Time per iteration: 1348 [mu s]
	Time per residual norm calculation: 333.000000 [mu s]
	Time per iteration and DOF: 0.049926 [ns]
	Retrieve results bandwidth 2.872000 [GByte/s]
[OGL LOG][Proc: 0]p: solve_multi_gpu: 3328.82 [ms]
nonehipGKOCG:  Solving for p, Initial residual = 0.905813, Final residual = 8.7242e-05, No Iterations 2296
[INFO] SolveP: 3396.58 [ms]
time step continuity errors : sum local = 9.57155e-09, global = 1.56124e-21, cumulative = 4.44439e-21
[INFO] ContinuityError: 46.369 [ms]
[INFO] CorrectBoundary: 2.085 [ms]
[INFO] PISOStep: 4024.8 [ms]
[INFO] MatrixAssemblyPI: 336.371 [ms]
[INFO] AdjustPhi: 21.21 [ms]
[INFO] ConstrainPressure: 0.004 [ms]
[INFO] MatrixAssemblyPII: 98.885 [ms]
[OGL LOG][Proc: 0]: global_index_init: 0.281 [ms]
[OGL LOG][Proc: 0]p_local_coeffs: call_update: 0 [ms]
[OGL LOG][Proc: 0]p_non_local_coeffs: call_update: 0 [ms]
[OGL LOG][Proc: 0]p: update_local_matrix_data: 54.75 [ms]
[OGL LOG][Proc: 0]p: update_non_local_matrix_data: 0.238 [ms]
[OGL LOG][Proc: 0]p: regenerate_distributed_matrix: 204.631 [ms]
[OGL LOG][Proc: 0]p_matrix: call_update: 206.867 [ms]
[OGL LOG][Proc: 0]p_rhs: call_update: 9.331 [ms]
[OGL LOG][Proc: 0]p: init_precond: 0.057 [ms]
[OGL LOG][StoppingCriterion.H:239] Creating stopping criterion with minIter 1377 frequency 15
[OGL LOG][Proc: 0]p: generate_solver: 0.004 [ms]
[OGL LOG][Proc: 0]p: solve: 3099.03 [ms]
[OGL LOG][Proc: 0]p: copy_x_back: 9.034 [ms]
[OGL LOG][lduLduBase.H:330] 
Statistics:
	Time per iteration: 1349 [mu s]
	Time per residual norm calculation: 339.000000 [mu s]
	Time per iteration and DOF: 0.049963 [ns]
	Retrieve results bandwidth 2.988000 [GByte/s]
[OGL LOG][Proc: 0]p: solve_multi_gpu: 3331.05 [ms]
nonehipGKOCG:  Solving for p, Initial residual = 0.860978, Final residual = 9.12238e-05, No Iterations 2296
[INFO] SolveP: 3397.93 [ms]
time step continuity errors : sum local = 9.89898e-09, global = 3.69558e-22, cumulative = 4.81395e-21
[INFO] ContinuityError: 50.163 [ms]
[INFO] CorrectBoundary: 1.404 [ms]
[INFO] PISOStep: 4017.92 [ms]
[INFO] TimeStep: 11306.4 [ms]
ExecutionTime = 91.21 s  ClockTime = 79 s

Time = 0.001328

Courant Number mean: 0.034753 max: 0.481308
[INFO] MatrixAssemblyU: 262.512 [ms]
DILUPBiCGStab:  Solving for Ux, Initial residual = 0.0221224, Final residual = 0.00183363, No Iterations 5
DILUPBiCGStab:  Solving for Uy, Initial residual = 0.0870732, Final residual = 0.00645277, No Iterations 5
DILUPBiCGStab:  Solving for Uz, Initial residual = 0.509775, Final residual = 0.0204283, No Iterations 5
[INFO] MomentumPredictor: 2966.15 [ms]
[INFO] MatrixAssemblyPI: 344.654 [ms]
[INFO] AdjustPhi: 19.162 [ms]
[INFO] ConstrainPressure: 0.004 [ms]
[INFO] MatrixAssemblyPII: 98.283 [ms]
[OGL LOG][Proc: 0]: global_index_init: 0.202 [ms]
[OGL LOG][Proc: 0]p_local_coeffs: call_update: 0 [ms]
[OGL LOG][Proc: 0]p_non_local_coeffs: call_update: 0 [ms]
[OGL LOG][Proc: 0]p: update_local_matrix_data: 53.364 [ms]
[OGL LOG][Proc: 0]p: update_non_local_matrix_data: 0.34 [ms]
[OGL LOG][Proc: 0]p: regenerate_distributed_matrix: 202.31 [ms]
[OGL LOG][Proc: 0]p_matrix: call_update: 204.285 [ms]
[OGL LOG][Proc: 0]p_rhs: call_update: 9.156 [ms]
[OGL LOG][Proc: 0]p: init_precond: 0.069 [ms]
[OGL LOG][StoppingCriterion.H:239] Creating stopping criterion with minIter 1377 frequency 17
[OGL LOG][Proc: 0]p: generate_solver: 0.004 [ms]
[OGL LOG][Proc: 0]p: solve: 3135.41 [ms]
[OGL LOG][Proc: 0]p: copy_x_back: 9.107 [ms]
[OGL LOG][lduLduBase.H:330] 
Statistics:
	Time per iteration: 1355 [mu s]
	Time per residual norm calculation: 334.000000 [mu s]
	Time per iteration and DOF: 0.050185 [ns]
	Retrieve results bandwidth 2.964000 [GByte/s]
[OGL LOG][Proc: 0]p: solve_multi_gpu: 3370.08 [ms]
nonehipGKOCG:  Solving for p, Initial residual = 0.883744, Final residual = 9.69427e-05, No Iterations 2313
[INFO] SolveP: 3436.57 [ms]
time step continuity errors : sum local = 1.08027e-08, global = 9.17635e-22, cumulative = 5.73158e-21
[INFO] ContinuityError: 48.983 [ms]
[INFO] CorrectBoundary: 2.779 [ms]
[INFO] PISOStep: 4063.59 [ms]
[INFO] MatrixAssemblyPI: 336.663 [ms]
[INFO] AdjustPhi: 19.823 [ms]
[INFO] ConstrainPressure: 0.004 [ms]
[INFO] MatrixAssemblyPII: 99.043 [ms]
[OGL LOG][Proc: 0]: global_index_init: 0.099 [ms]
[OGL LOG][Proc: 0]p_local_coeffs: call_update: 0 [ms]
[OGL LOG][Proc: 0]p_non_local_coeffs: call_update: 0 [ms]
[OGL LOG][Proc: 0]p: update_local_matrix_data: 55.988 [ms]
[OGL LOG][Proc: 0]p: update_non_local_matrix_data: 0.245 [ms]
[OGL LOG][Proc: 0]p: regenerate_distributed_matrix: 190.396 [ms]
[OGL LOG][Proc: 0]p_matrix: call_update: 192.406 [ms]
[OGL LOG][Proc: 0]p_rhs: call_update: 11.127 [ms]
[OGL LOG][Proc: 0]p: init_precond: 0.06 [ms]
[OGL LOG][StoppingCriterion.H:239] Creating stopping criterion with minIter 1387 frequency 15
[OGL LOG][Proc: 0]p: generate_solver: 0.004 [ms]
[OGL LOG][Proc: 0]p: solve: 3140.87 [ms]
[OGL LOG][Proc: 0]p: copy_x_back: 9.729 [ms]
[OGL LOG][lduLduBase.H:330] 
Statistics:
	Time per iteration: 1359 [mu s]
	Time per residual norm calculation: 331.000000 [mu s]
	Time per iteration and DOF: 0.050333 [ns]
	Retrieve results bandwidth 2.775000 [GByte/s]
[OGL LOG][Proc: 0]p: solve_multi_gpu: 3363.01 [ms]
nonehipGKOCG:  Solving for p, Initial residual = 0.817895, Final residual = 9.22393e-05, No Iterations 2311
[INFO] SolveP: 3430.79 [ms]
time step continuity errors : sum local = 1.04204e-08, global = 1.86008e-21, cumulative = 7.59166e-21
[INFO] ContinuityError: 49.626 [ms]
[INFO] CorrectBoundary: 1.385 [ms]
[INFO] PISOStep: 4050.53 [ms]
[INFO] TimeStep: 11387.6 [ms]
ExecutionTime = 104.53 s  ClockTime = 90 s

Time = 0.001494

Courant Number mean: 0.036702 max: 0.518001
[INFO] MatrixAssemblyU: 262.758 [ms]
DILUPBiCGStab:  Solving for Ux, Initial residual = 0.0205466, Final residual = 0.00171313, No Iterations 5
DILUPBiCGStab:  Solving for Uy, Initial residual = 0.0819317, Final residual = 0.0061118, No Iterations 5
DILUPBiCGStab:  Solving for Uz, Initial residual = 0.505882, Final residual = 0.0192113, No Iterations 5
[INFO] MomentumPredictor: 2976.22 [ms]
[INFO] MatrixAssemblyPI: 344.493 [ms]
[INFO] AdjustPhi: 18.98 [ms]
[INFO] ConstrainPressure: 0.005 [ms]
[INFO] MatrixAssemblyPII: 98.784 [ms]
[OGL LOG][Proc: 0]: global_index_init: 0.042 [ms]
[OGL LOG][Proc: 0]p_local_coeffs: call_update: 0 [ms]
[OGL LOG][Proc: 0]p_non_local_coeffs: call_update: 0 [ms]
[OGL LOG][Proc: 0]p: update_local_matrix_data: 57.739 [ms]
[OGL LOG][Proc: 0]p: update_non_local_matrix_data: 0.245 [ms]
[OGL LOG][Proc: 0]p: regenerate_distributed_matrix: 194.218 [ms]
[OGL LOG][Proc: 0]p_matrix: call_update: 196.267 [ms]
[OGL LOG][Proc: 0]p_rhs: call_update: 11.815 [ms]
[OGL LOG][Proc: 0]p: init_precond: 0.059 [ms]
[OGL LOG][StoppingCriterion.H:239] Creating stopping criterion with minIter 1386 frequency 15
[OGL LOG][Proc: 0]p: generate_solver: 0.006 [ms]
[OGL LOG][Proc: 0]p: solve: 2891.43 [ms]
[OGL LOG][Proc: 0]p: copy_x_back: 9.33 [ms]
[OGL LOG][lduLduBase.H:330] 
Statistics:
	Time per iteration: 1376 [mu s]
	Time per residual norm calculation: 304.000000 [mu s]
	Time per iteration and DOF: 0.050963 [ns]
	Retrieve results bandwidth 2.893000 [GByte/s]
[OGL LOG][Proc: 0]p: solve_multi_gpu: 3112.95 [ms]
nonehipGKOCG:  Solving for p, Initial residual = 0.901647, Final residual = 8.30761e-05, No Iterations 2101
[INFO] SolveP: 3182.84 [ms]
time step continuity errors : sum local = 9.06702e-09, global = 1.52749e-21, cumulative = 9.11915e-21
[INFO] ContinuityError: 48.355 [ms]
[INFO] CorrectBoundary: 1.968 [ms]
[INFO] PISOStep: 3810.58 [ms]
[INFO] MatrixAssemblyPI: 336.225 [ms]
[INFO] AdjustPhi: 20.5 [ms]
[INFO] ConstrainPressure: 0.004 [ms]
[INFO] MatrixAssemblyPII: 97.964 [ms]
[OGL LOG][Proc: 0]: global_index_init: 0.253 [ms]
[OGL LOG][Proc: 0]p_local_coeffs: call_update: 0 [ms]
[OGL LOG][Proc: 0]p_non_local_coeffs: call_update: 0 [ms]
[OGL LOG][Proc: 0]p: update_local_matrix_data: 55.224 [ms]
[OGL LOG][Proc: 0]p: update_non_local_matrix_data: 0.329 [ms]
[OGL LOG][Proc: 0]p: regenerate_distributed_matrix: 189.071 [ms]
[OGL LOG][Proc: 0]p_matrix: call_update: 191.076 [ms]
[OGL LOG][Proc: 0]p_rhs: call_update: 14.762 [ms]
[OGL LOG][Proc: 0]p: init_precond: 0.071 [ms]
[OGL LOG][StoppingCriterion.H:239] Creating stopping criterion with minIter 1260 frequency 14
[OGL LOG][Proc: 0]p: generate_solver: 0.003 [ms]
[OGL LOG][Proc: 0]p: solve: 2871.57 [ms]
[OGL LOG][Proc: 0]p: copy_x_back: 12.647 [ms]
[OGL LOG][lduLduBase.H:330] 
Statistics:
	Time per iteration: 1375 [mu s]
	Time per residual norm calculation: 336.000000 [mu s]
	Time per iteration and DOF: 0.050926 [ns]
	Retrieve results bandwidth 2.134000 [GByte/s]
[OGL LOG][Proc: 0]p: solve_multi_gpu: 3096.93 [ms]
nonehipGKOCG:  Solving for p, Initial residual = 0.85176, Final residual = 9.2458e-05, No Iterations 2087
[INFO] SolveP: 3165.74 [ms]
time step continuity errors : sum local = 9.99203e-09, global = -1.04752e-22, cumulative = 9.0144e-21
[INFO] ContinuityError: 48.287 [ms]
[INFO] CorrectBoundary: 1.542 [ms]
[INFO] PISOStep: 3783.22 [ms]
[INFO] TimeStep: 10876.8 [ms]
ExecutionTime = 117.17 s  ClockTime = 101 s

Time = 0.00166

Courant Number mean: 0.0383957 max: 0.483672
[INFO] MatrixAssemblyU: 268.336 [ms]
DILUPBiCGStab:  Solving for Ux, Initial residual = 0.0193381, Final residual = 0.00162673, No Iterations 5
DILUPBiCGStab:  Solving for Uy, Initial residual = 0.0736112, Final residual = 0.00529583, No Iterations 5
DILUPBiCGStab:  Solving for Uz, Initial residual = 0.484916, Final residual = 0.0184611, No Iterations 5
[INFO] MomentumPredictor: 2967.62 [ms]
[INFO] MatrixAssemblyPI: 348.333 [ms]
[INFO] AdjustPhi: 17.949 [ms]
[INFO] ConstrainPressure: 0.004 [ms]
[INFO] MatrixAssemblyPII: 98.509 [ms]
[OGL LOG][Proc: 0]: global_index_init: 0.162 [ms]
[OGL LOG][Proc: 0]p_local_coeffs: call_update: 0 [ms]
[OGL LOG][Proc: 0]p_non_local_coeffs: call_update: 0 [ms]
[OGL LOG][Proc: 0]p: update_local_matrix_data: 57.151 [ms]
[OGL LOG][Proc: 0]p: update_non_local_matrix_data: 0.237 [ms]
[OGL LOG][Proc: 0]p: regenerate_distributed_matrix: 179.161 [ms]
[OGL LOG][Proc: 0]p_matrix: call_update: 184.286 [ms]
[OGL LOG][Proc: 0]p_rhs: call_update: 12.277 [ms]
[OGL LOG][Proc: 0]p: init_precond: 0.056 [ms]
[OGL LOG][StoppingCriterion.H:239] Creating stopping criterion with minIter 1252 frequency 14
[OGL LOG][Proc: 0]p: generate_solver: 0.004 [ms]
[OGL LOG][Proc: 0]p: solve: 3170.76 [ms]
[OGL LOG][Proc: 0]p: copy_x_back: 9.388 [ms]
[OGL LOG][lduLduBase.H:330] 
Statistics:
	Time per iteration: 1372 [mu s]
	Time per residual norm calculation: 324.000000 [mu s]
	Time per iteration and DOF: 0.050815 [ns]
	Retrieve results bandwidth 2.876000 [GByte/s]
[OGL LOG][Proc: 0]p: solve_multi_gpu: 3387.37 [ms]
nonehipGKOCG:  Solving for p, Initial residual = 0.882634, Final residual = 8.52279e-05, No Iterations 2311
[INFO] SolveP: 3457.89 [ms]
time step continuity errors : sum local = 9.59956e-09, global = 7.32564e-22, cumulative = 9.74696e-21
[INFO] ContinuityError: 48.722 [ms]
[INFO] CorrectBoundary: 2.092 [ms]
[INFO] PISOStep: 4084.92 [ms]
[INFO] MatrixAssemblyPI: 336.109 [ms]
[INFO] AdjustPhi: 20.235 [ms]
[INFO] ConstrainPressure: 0.004 [ms]
[INFO] MatrixAssemblyPII: 98.325 [ms]
[OGL LOG][Proc: 0]: global_index_init: 0.213 [ms]
[OGL LOG][Proc: 0]p_local_coeffs: call_update: 0 [ms]
[OGL LOG][Proc: 0]p_non_local_coeffs: call_update: 0 [ms]
[OGL LOG][Proc: 0]p: update_local_matrix_data: 76.371 [ms]
[OGL LOG][Proc: 0]p: update_non_local_matrix_data: 0.24 [ms]
[OGL LOG][Proc: 0]p: regenerate_distributed_matrix: 192.963 [ms]
[OGL LOG][Proc: 0]p_matrix: call_update: 194.953 [ms]
[OGL LOG][Proc: 0]p_rhs: call_update: 11.879 [ms]
[OGL LOG][Proc: 0]p: init_precond: 0.058 [ms]
[OGL LOG][StoppingCriterion.H:239] Creating stopping criterion with minIter 1386 frequency 15
[OGL LOG][Proc: 0]p: generate_solver: 0.005 [ms]
[OGL LOG][Proc: 0]p: solve: 3128.33 [ms]
[OGL LOG][Proc: 0]p: copy_x_back: 9.434 [ms]
[OGL LOG][lduLduBase.H:330] 
Statistics:
	Time per iteration: 1362 [mu s]
	Time per residual norm calculation: 338.000000 [mu s]
	Time per iteration and DOF: 0.050444 [ns]
	Retrieve results bandwidth 2.861000 [GByte/s]
[OGL LOG][Proc: 0]p: solve_multi_gpu: 3352.12 [ms]
nonehipGKOCG:  Solving for p, Initial residual = 0.813498, Final residual = 9.90621e-05, No Iterations 2296
[INFO] SolveP: 3439.8 [ms]
time step continuity errors : sum local = 1.12978e-08, global = -8.96647e-23, cumulative = 9.6573e-21
[INFO] ContinuityError: 51.281 [ms]
[INFO] CorrectBoundary: 2.572 [ms]
[INFO] PISOStep: 4061.97 [ms]
[INFO] TimeStep: 11428.8 [ms]
ExecutionTime = 130.53 s  ClockTime = 113 s

Time = 0.001826

Courant Number mean: 0.0400178 max: 0.524623
[INFO] MatrixAssemblyU: 266.747 [ms]
DILUPBiCGStab:  Solving for Ux, Initial residual = 0.0181665, Final residual = 0.00152139, No Iterations 5
DILUPBiCGStab:  Solving for Uy, Initial residual = 0.0719886, Final residual = 0.00511562, No Iterations 5
DILUPBiCGStab:  Solving for Uz, Initial residual = 0.485935, Final residual = 0.0172353, No Iterations 5
[INFO] MomentumPredictor: 2969.3 [ms]
[INFO] MatrixAssemblyPI: 344.329 [ms]
[INFO] AdjustPhi: 18.98 [ms]
[INFO] ConstrainPressure: 0.004 [ms]
[INFO] MatrixAssemblyPII: 98.895 [ms]
[OGL LOG][Proc: 0]: global_index_init: 0.15 [ms]
[OGL LOG][Proc: 0]p_local_coeffs: call_update: 0 [ms]
[OGL LOG][Proc: 0]p_non_local_coeffs: call_update: 0 [ms]
[OGL LOG][Proc: 0]p: update_local_matrix_data: 62.119 [ms]
[OGL LOG][Proc: 0]p: update_non_local_matrix_data: 0.23 [ms]
[OGL LOG][Proc: 0]p: regenerate_distributed_matrix: 178.903 [ms]
[OGL LOG][Proc: 0]p_matrix: call_update: 180.907 [ms]
[OGL LOG][Proc: 0]p_rhs: call_update: 14.358 [ms]
[OGL LOG][Proc: 0]p: init_precond: 0.059 [ms]
[OGL LOG][StoppingCriterion.H:239] Creating stopping criterion with minIter 1377 frequency 15
[OGL LOG][Proc: 0]p: generate_solver: 0.004 [ms]
[OGL LOG][Proc: 0]p: solve: 3135.89 [ms]
[OGL LOG][Proc: 0]p: copy_x_back: 9.029 [ms]
[OGL LOG][lduLduBase.H:330] 
Statistics:
	Time per iteration: 1365 [mu s]
	Time per residual norm calculation: 332.000000 [mu s]
	Time per iteration and DOF: 0.050556 [ns]
	Retrieve results bandwidth 2.990000 [GByte/s]
[OGL LOG][Proc: 0]p: solve_multi_gpu: 3355.1 [ms]
nonehipGKOCG:  Solving for p, Initial residual = 0.90163, Final residual = 9.63176e-05, No Iterations 2296
[INFO] SolveP: 3430.77 [ms]
time step continuity errors : sum local = 1.07878e-08, global = 1.11947e-21, cumulative = 1.07768e-20
[INFO] ContinuityError: 49.032 [ms]
[INFO] CorrectBoundary: 3.376 [ms]
[INFO] PISOStep: 4055.49 [ms]
[INFO] MatrixAssemblyPI: 340.244 [ms]
[INFO] AdjustPhi: 17.937 [ms]
[INFO] ConstrainPressure: 0.004 [ms]
[INFO] MatrixAssemblyPII: 97.946 [ms]
[OGL LOG][Proc: 0]: global_index_init: 0.306 [ms]
[OGL LOG][Proc: 0]p_local_coeffs: call_update: 0 [ms]
[OGL LOG][Proc: 0]p_non_local_coeffs: call_update: 0 [ms]
[OGL LOG][Proc: 0]p: update_local_matrix_data: 55.215 [ms]
[OGL LOG][Proc: 0]p: update_non_local_matrix_data: 0.338 [ms]
[OGL LOG][Proc: 0]p: regenerate_distributed_matrix: 192.256 [ms]
[OGL LOG][Proc: 0]p_matrix: call_update: 194.209 [ms]
[OGL LOG][Proc: 0]p_rhs: call_update: 12.819 [ms]
[OGL LOG][Proc: 0]p: init_precond: 0.07 [ms]
[OGL LOG][StoppingCriterion.H:239] Creating stopping criterion with minIter 1377 frequency 15
[OGL LOG][Proc: 0]p: generate_solver: 0.004 [ms]
[OGL LOG][Proc: 0]p: solve: 3130.07 [ms]
[OGL LOG][Proc: 0]p: copy_x_back: 9.312 [ms]
[OGL LOG][lduLduBase.H:330] 
Statistics:
	Time per iteration: 1363 [mu s]
	Time per residual norm calculation: 325.000000 [mu s]
	Time per iteration and DOF: 0.050481 [ns]
	Retrieve results bandwidth 2.899000 [GByte/s]
[OGL LOG][Proc: 0]p: solve_multi_gpu: 3351.65 [ms]
nonehipGKOCG:  Solving for p, Initial residual = 0.847132, Final residual = 9.32412e-05, No Iterations 2296
[INFO] SolveP: 3421.79 [ms]
time step continuity errors : sum local = 1.03555e-08, global = 3.49639e-22, cumulative = 1.11264e-20
[INFO] ContinuityError: 52.08 [ms]
[INFO] CorrectBoundary: 1.002 [ms]
[INFO] PISOStep: 4045.2 [ms]
[INFO] TimeStep: 11380.9 [ms]
ExecutionTime = 143.85 s  ClockTime = 124 s

Time = 0.001992

Courant Number mean: 0.041449 max: 0.486754
[INFO] MatrixAssemblyU: 266.342 [ms]
DILUPBiCGStab:  Solving for Ux, Initial residual = 0.0175741, Final residual = 0.00146944, No Iterations 5
DILUPBiCGStab:  Solving for Uy, Initial residual = 0.0655166, Final residual = 0.00449837, No Iterations 5
DILUPBiCGStab:  Solving for Uz, Initial residual = 0.470924, Final residual = 0.0165643, No Iterations 5
[INFO] MomentumPredictor: 2960.38 [ms]
[INFO] MatrixAssemblyPI: 343.576 [ms]
[INFO] AdjustPhi: 20.218 [ms]
[INFO] ConstrainPressure: 0.004 [ms]
[INFO] MatrixAssemblyPII: 97.769 [ms]
[OGL LOG][Proc: 0]: global_index_init: 0.071 [ms]
[OGL LOG][Proc: 0]p_local_coeffs: call_update: 0 [ms]
[OGL LOG][Proc: 0]p_non_local_coeffs: call_update: 0 [ms]
[OGL LOG][Proc: 0]p: update_local_matrix_data: 58.861 [ms]
[OGL LOG][Proc: 0]p: update_non_local_matrix_data: 0.23 [ms]
[OGL LOG][Proc: 0]p: regenerate_distributed_matrix: 192.4 [ms]
[OGL LOG][Proc: 0]p_matrix: call_update: 194.41 [ms]
[OGL LOG][Proc: 0]p_rhs: call_update: 10.333 [ms]
[OGL LOG][Proc: 0]p: init_precond: 0.057 [ms]
[OGL LOG][StoppingCriterion.H:239] Creating stopping criterion with minIter 1377 frequency 15
[OGL LOG][Proc: 0]p: generate_solver: 0.004 [ms]
[OGL LOG][Proc: 0]p: solve: 3057.34 [ms]
[OGL LOG][Proc: 0]p: copy_x_back: 9.444 [ms]
[OGL LOG][lduLduBase.H:330] 
Statistics:
	Time per iteration: 1358 [mu s]
	Time per residual norm calculation: 332.000000 [mu s]
	Time per iteration and DOF: 0.050296 [ns]
	Retrieve results bandwidth 2.858000 [GByte/s]
[OGL LOG][Proc: 0]p: solve_multi_gpu: 3280.96 [ms]
nonehipGKOCG:  Solving for p, Initial residual = 0.884152, Final residual = 9.28291e-05, No Iterations 2251
[INFO] SolveP: 3352.69 [ms]
time step continuity errors : sum local = 1.0808e-08, global = 6.60129e-22, cumulative = 1.17865e-20
[INFO] ContinuityError: 51.171 [ms]
[INFO] CorrectBoundary: 1.465 [ms]
[INFO] PISOStep: 3980.08 [ms]
[INFO] MatrixAssemblyPI: 337.144 [ms]
[INFO] AdjustPhi: 19.24 [ms]
[INFO] ConstrainPressure: 0.004 [ms]
[INFO] MatrixAssemblyPII: 99.161 [ms]
[OGL LOG][Proc: 0]: global_index_init: 0.159 [ms]
[OGL LOG][Proc: 0]p_local_coeffs: call_update: 0 [ms]
[OGL LOG][Proc: 0]p_non_local_coeffs: call_update: 0 [ms]
[OGL LOG][Proc: 0]p: update_local_matrix_data: 61.53 [ms]
[OGL LOG][Proc: 0]p: update_non_local_matrix_data: 0.236 [ms]
[OGL LOG][Proc: 0]p: regenerate_distributed_matrix: 193.893 [ms]
[OGL LOG][Proc: 0]p_matrix: call_update: 195.856 [ms]
[OGL LOG][Proc: 0]p_rhs: call_update: 14.885 [ms]
[OGL LOG][Proc: 0]p: init_precond: 0.056 [ms]
[OGL LOG][StoppingCriterion.H:239] Creating stopping criterion with minIter 1350 frequency 15
[OGL LOG][Proc: 0]p: generate_solver: 0.004 [ms]
[OGL LOG][Proc: 0]p: solve: 3115.4 [ms]
[OGL LOG][Proc: 0]p: copy_x_back: 9.411 [ms]
[OGL LOG][lduLduBase.H:330] 
Statistics:
	Time per iteration: 1356 [mu s]
	Time per residual norm calculation: 325.000000 [mu s]
	Time per iteration and DOF: 0.050222 [ns]
	Retrieve results bandwidth 2.868000 [GByte/s]
[OGL LOG][Proc: 0]p: solve_multi_gpu: 3344.48 [ms]
nonehipGKOCG:  Solving for p, Initial residual = 0.8136, Final residual = 9.07175e-05, No Iterations 2296
[INFO] SolveP: 3418.11 [ms]
time step continuity errors : sum local = 1.068e-08, global = 6.9089e-22, cumulative = 1.24774e-20
[INFO] ContinuityError: 49.496 [ms]
[INFO] CorrectBoundary: 4.246 [ms]
[INFO] PISOStep: 4040.81 [ms]
[INFO] TimeStep: 11292.8 [ms]
ExecutionTime = 157.04 s  ClockTime = 135 s

Time = 0.002158

Courant Number mean: 0.0428475 max: 0.532248
[INFO] MatrixAssemblyU: 263.187 [ms]
DILUPBiCGStab:  Solving for Ux, Initial residual = 0.0166409, Final residual = 0.00136946, No Iterations 5
DILUPBiCGStab:  Solving for Uy, Initial residual = 0.065565, Final residual = 0.00442751, No Iterations 5
DILUPBiCGStab:  Solving for Uz, Initial residual = 0.479056, Final residual = 0.0163204, No Iterations 5
[INFO] MomentumPredictor: 2963.92 [ms]
[INFO] MatrixAssemblyPI: 346.121 [ms]
[INFO] AdjustPhi: 17.955 [ms]
[INFO] ConstrainPressure: 0.004 [ms]
[INFO] MatrixAssemblyPII: 98.085 [ms]
[OGL LOG][Proc: 0]: global_index_init: 0.177 [ms]
[OGL LOG][Proc: 0]p_local_coeffs: call_update: 0 [ms]
[OGL LOG][Proc: 0]p_non_local_coeffs: call_update: 0 [ms]
[OGL LOG][Proc: 0]p: update_local_matrix_data: 57.637 [ms]
[OGL LOG][Proc: 0]p: update_non_local_matrix_data: 0.223 [ms]
[OGL LOG][Proc: 0]p: regenerate_distributed_matrix: 200.621 [ms]
[OGL LOG][Proc: 0]p_matrix: call_update: 202.632 [ms]
[OGL LOG][Proc: 0]p_rhs: call_update: 23.208 [ms]
[OGL LOG][Proc: 0]p: init_precond: 0.057 [ms]
[OGL LOG][StoppingCriterion.H:239] Creating stopping criterion with minIter 1377 frequency 15
[OGL LOG][Proc: 0]p: generate_solver: 0.004 [ms]
[OGL LOG][Proc: 0]p: solve: 3119.37 [ms]
[OGL LOG][Proc: 0]p: copy_x_back: 9.334 [ms]
[OGL LOG][lduLduBase.H:330] 
Statistics:
	Time per iteration: 1358 [mu s]
	Time per residual norm calculation: 335.000000 [mu s]
	Time per iteration and DOF: 0.050296 [ns]
	Retrieve results bandwidth 2.892000 [GByte/s]
[OGL LOG][Proc: 0]p: solve_multi_gpu: 3368.31 [ms]
nonehipGKOCG:  Solving for p, Initial residual = 0.902376, Final residual = 9.02372e-05, No Iterations 2296
[INFO] SolveP: 3438.03 [ms]
time step continuity errors : sum local = 1.05065e-08, global = 5.46884e-22, cumulative = 1.30243e-20
[INFO] ContinuityError: 46.183 [ms]
[INFO] CorrectBoundary: 1.776 [ms]
[INFO] PISOStep: 4061.57 [ms]
[INFO] MatrixAssemblyPI: 335.503 [ms]
[INFO] AdjustPhi: 20.682 [ms]
[INFO] ConstrainPressure: 0.004 [ms]
[INFO] MatrixAssemblyPII: 97.651 [ms]
[OGL LOG][Proc: 0]: global_index_init: 0.282 [ms]
[OGL LOG][Proc: 0]p_local_coeffs: call_update: 0 [ms]
[OGL LOG][Proc: 0]p_non_local_coeffs: call_update: 0 [ms]
[OGL LOG][Proc: 0]p: update_local_matrix_data: 56.231 [ms]
[OGL LOG][Proc: 0]p: update_non_local_matrix_data: 0.246 [ms]
[OGL LOG][Proc: 0]p: regenerate_distributed_matrix: 201.711 [ms]
[OGL LOG][Proc: 0]p_matrix: call_update: 203.661 [ms]
[OGL LOG][Proc: 0]p_rhs: call_update: 3.439 [ms]
[OGL LOG][Proc: 0]p: init_precond: 0.057 [ms]
[OGL LOG][StoppingCriterion.H:239] Creating stopping criterion with minIter 1377 frequency 15
[OGL LOG][Proc: 0]p: generate_solver: 0.004 [ms]
[OGL LOG][Proc: 0]p: solve: 3127.7 [ms]
[OGL LOG][Proc: 0]p: copy_x_back: 9.299 [ms]
[OGL LOG][lduLduBase.H:330] 
Statistics:
	Time per iteration: 1362 [mu s]
	Time per residual norm calculation: 341.000000 [mu s]
	Time per iteration and DOF: 0.050444 [ns]
	Retrieve results bandwidth 2.903000 [GByte/s]
[OGL LOG][Proc: 0]p: solve_multi_gpu: 3349.62 [ms]
nonehipGKOCG:  Solving for p, Initial residual = 0.844264, Final residual = 8.83652e-05, No Iterations 2296
[INFO] SolveP: 3418.59 [ms]
time step continuity errors : sum local = 1.02165e-08, global = -5.29793e-22, cumulative = 1.24945e-20
[INFO] ContinuityError: 50.423 [ms]
[INFO] CorrectBoundary: 2.573 [ms]
[INFO] PISOStep: 4038.17 [ms]
[INFO] TimeStep: 11371.1 [ms]
ExecutionTime = 170.34 s  ClockTime = 147 s

Time = 0.002324

Courant Number mean: 0.0440892 max: 0.489795
[INFO] MatrixAssemblyU: 264.096 [ms]
DILUPBiCGStab:  Solving for Ux, Initial residual = 0.0164082, Final residual = 0.0013445, No Iterations 5
DILUPBiCGStab:  Solving for Uy, Initial residual = 0.0604309, Final residual = 0.00392995, No Iterations 5
DILUPBiCGStab:  Solving for Uz, Initial residual = 0.469707, Final residual = 0.0158368, No Iterations 5
[INFO] MomentumPredictor: 2972.21 [ms]
[INFO] MatrixAssemblyPI: 346.795 [ms]
[INFO] AdjustPhi: 25.171 [ms]
[INFO] ConstrainPressure: 0.004 [ms]
[INFO] MatrixAssemblyPII: 98.611 [ms]
[OGL LOG][Proc: 0]: global_index_init: 0.09 [ms]
[OGL LOG][Proc: 0]p_local_coeffs: call_update: 0 [ms]
[OGL LOG][Proc: 0]p_non_local_coeffs: call_update: 0 [ms]
[OGL LOG][Proc: 0]p: update_local_matrix_data: 54.348 [ms]
[OGL LOG][Proc: 0]p: update_non_local_matrix_data: 0.326 [ms]
[OGL LOG][Proc: 0]p: regenerate_distributed_matrix: 200.458 [ms]
[OGL LOG][Proc: 0]p_matrix: call_update: 202.409 [ms]
[OGL LOG][Proc: 0]p_rhs: call_update: 25.743 [ms]
[OGL LOG][Proc: 0]p: init_precond: 0.06 [ms]
[OGL LOG][StoppingCriterion.H:239] Creating stopping criterion with minIter 1377 frequency 17
[OGL LOG][Proc: 0]p: generate_solver: 0.003 [ms]
[OGL LOG][Proc: 0]p: solve: 3125.18 [ms]
[OGL LOG][Proc: 0]p: copy_x_back: 9.406 [ms]
[OGL LOG][lduLduBase.H:330] 
Statistics:
	Time per iteration: 1361 [mu s]
	Time per residual norm calculation: 342.000000 [mu s]
	Time per iteration and DOF: 0.050407 [ns]
	Retrieve results bandwidth 2.870000 [GByte/s]
[OGL LOG][Proc: 0]p: solve_multi_gpu: 3376.33 [ms]
nonehipGKOCG:  Solving for p, Initial residual = 0.886504, Final residual = 9.61845e-05, No Iterations 2296
[INFO] SolveP: 3441.45 [ms]
time step continuity errors : sum local = 1.16586e-08, global = 7.88475e-22, cumulative = 1.3283e-20
[INFO] ContinuityError: 49.785 [ms]
[INFO] CorrectBoundary: 1.294 [ms]
[INFO] PISOStep: 4076.2 [ms]
[INFO] MatrixAssemblyPI: 337.369 [ms]
[INFO] AdjustPhi: 18.772 [ms]
[INFO] ConstrainPressure: 0.004 [ms]
[INFO] MatrixAssemblyPII: 98.817 [ms]
[OGL LOG][Proc: 0]: global_index_init: 0.043 [ms]
[OGL LOG][Proc: 0]p_local_coeffs: call_update: 0 [ms]
[OGL LOG][Proc: 0]p_non_local_coeffs: call_update: 0 [ms]
[OGL LOG][Proc: 0]p: update_local_matrix_data: 54.716 [ms]
[OGL LOG][Proc: 0]p: update_non_local_matrix_data: 0.24 [ms]
[OGL LOG][Proc: 0]p: regenerate_distributed_matrix: 185.052 [ms]
[OGL LOG][Proc: 0]p_matrix: call_update: 187.056 [ms]
[OGL LOG][Proc: 0]p_rhs: call_update: 19.636 [ms]
[OGL LOG][Proc: 0]p: init_precond: 0.055 [ms]
[OGL LOG][StoppingCriterion.H:239] Creating stopping criterion with minIter 1377 frequency 17
[OGL LOG][Proc: 0]p: generate_solver: 0.004 [ms]
[OGL LOG][Proc: 0]p: solve: 3139.33 [ms]
[OGL LOG][Proc: 0]p: copy_x_back: 9.582 [ms]
[OGL LOG][lduLduBase.H:330] 
Statistics:
	Time per iteration: 1367 [mu s]
	Time per residual norm calculation: 338.000000 [mu s]
	Time per iteration and DOF: 0.050630 [ns]
	Retrieve results bandwidth 2.817000 [GByte/s]
[OGL LOG][Proc: 0]p: solve_multi_gpu: 3363.45 [ms]
nonehipGKOCG:  Solving for p, Initial residual = 0.814784, Final residual = 9.36683e-05, No Iterations 2296
[INFO] SolveP: 3429.92 [ms]
time step continuity errors : sum local = 1.14645e-08, global = 1.11485e-21, cumulative = 1.43978e-20
[INFO] ContinuityError: 48.423 [ms]
[INFO] CorrectBoundary: 1.212 [ms]
[INFO] PISOStep: 4046.87 [ms]
[INFO] TimeStep: 11403.6 [ms]
ExecutionTime = 183.66 s  ClockTime = 158 s

Time = 0.00249

Courant Number mean: 0.0453247 max: 0.540989
[INFO] MatrixAssemblyU: 266.893 [ms]
DILUPBiCGStab:  Solving for Ux, Initial residual = 0.0156586, Final residual = 0.00124701, No Iterations 5
DILUPBiCGStab:  Solving for Uy, Initial residual = 0.0613147, Final residual = 0.00392745, No Iterations 5
DILUPBiCGStab:  Solving for Uz, Initial residual = 0.480193, Final residual = 0.0157615, No Iterations 5
[INFO] MomentumPredictor: 2983.82 [ms]
[INFO] MatrixAssemblyPI: 343.641 [ms]
[INFO] AdjustPhi: 19.584 [ms]
[INFO] ConstrainPressure: 0.004 [ms]
[INFO] MatrixAssemblyPII: 99.157 [ms]
[OGL LOG][Proc: 0]: global_index_init: 0.056 [ms]
[OGL LOG][Proc: 0]p_local_coeffs: call_update: 0 [ms]
[OGL LOG][Proc: 0]p_non_local_coeffs: call_update: 0 [ms]
[OGL LOG][Proc: 0]p: update_local_matrix_data: 53.436 [ms]
[OGL LOG][Proc: 0]p: update_non_local_matrix_data: 0.232 [ms]
[OGL LOG][Proc: 0]p: regenerate_distributed_matrix: 188.019 [ms]
[OGL LOG][Proc: 0]p_matrix: call_update: 189.972 [ms]
[OGL LOG][Proc: 0]p_rhs: call_update: 11.608 [ms]
[OGL LOG][Proc: 0]p: init_precond: 0.056 [ms]
[OGL LOG][StoppingCriterion.H:239] Creating stopping criterion with minIter 1377 frequency 15
[OGL LOG][Proc: 0]p: generate_solver: 0.004 [ms]
[OGL LOG][Proc: 0]p: solve: 3141.41 [ms]
[OGL LOG][Proc: 0]p: copy_x_back: 9.787 [ms]
[OGL LOG][lduLduBase.H:330] 
Statistics:
	Time per iteration: 1368 [mu s]
	Time per residual norm calculation: 326.000000 [mu s]
	Time per iteration and DOF: 0.050667 [ns]
	Retrieve results bandwidth 2.758000 [GByte/s]
[OGL LOG][Proc: 0]p: solve_multi_gpu: 3359.72 [ms]
nonehipGKOCG:  Solving for p, Initial residual = 0.903211, Final residual = 9.00901e-05, No Iterations 2296
[INFO] SolveP: 3425.12 [ms]
time step continuity errors : sum local = 1.09616e-08, global = -1.28003e-21, cumulative = 1.31178e-20
[INFO] ContinuityError: 47.721 [ms]
[INFO] CorrectBoundary: 2.602 [ms]
[INFO] PISOStep: 4050.7 [ms]
[INFO] MatrixAssemblyPI: 337.903 [ms]
[INFO] AdjustPhi: 18.382 [ms]
[INFO] ConstrainPressure: 0.004 [ms]
[INFO] MatrixAssemblyPII: 98.539 [ms]
[OGL LOG][Proc: 0]: global_index_init: 0.297 [ms]
[OGL LOG][Proc: 0]p_local_coeffs: call_update: 0 [ms]
[OGL LOG][Proc: 0]p_non_local_coeffs: call_update: 0 [ms]
[OGL LOG][Proc: 0]p: update_local_matrix_data: 54.546 [ms]
[OGL LOG][Proc: 0]p: update_non_local_matrix_data: 0.231 [ms]
[OGL LOG][Proc: 0]p: regenerate_distributed_matrix: 187.372 [ms]
[OGL LOG][Proc: 0]p_matrix: call_update: 189.319 [ms]
[OGL LOG][Proc: 0]p_rhs: call_update: 16.192 [ms]
[OGL LOG][Proc: 0]p: init_precond: 0.056 [ms]
[OGL LOG][StoppingCriterion.H:239] Creating stopping criterion with minIter 1377 frequency 15
[OGL LOG][Proc: 0]p: generate_solver: 0.004 [ms]
[OGL LOG][Proc: 0]p: solve: 3159.62 [ms]
[OGL LOG][Proc: 0]p: copy_x_back: 9.342 [ms]
[OGL LOG][lduLduBase.H:330] 
Statistics:
	Time per iteration: 1376 [mu s]
	Time per residual norm calculation: 335.000000 [mu s]
	Time per iteration and DOF: 0.050963 [ns]
	Retrieve results bandwidth 2.890000 [GByte/s]
[OGL LOG][Proc: 0]p: solve_multi_gpu: 3380.98 [ms]
nonehipGKOCG:  Solving for p, Initial residual = 0.842116, Final residual = 9.05029e-05, No Iterations 2296
[INFO] SolveP: 3447.84 [ms]
time step continuity errors : sum local = 1.09497e-08, global = 4.94817e-22, cumulative = 1.36126e-20
[INFO] ContinuityError: 52.743 [ms]
[INFO] CorrectBoundary: 1.741 [ms]
[INFO] PISOStep: 4070.62 [ms]
[INFO] TimeStep: 11416.6 [ms]
ExecutionTime = 197.02 s  ClockTime = 170 s

Time = 0.002656

Courant Number mean: 0.0464224 max: 0.492866
[INFO] MatrixAssemblyU: 262.493 [ms]
DILUPBiCGStab:  Solving for Ux, Initial residual = 0.0156458, Final residual = 0.00124145, No Iterations 5
DILUPBiCGStab:  Solving for Uy, Initial residual = 0.0572835, Final residual = 0.00351476, No Iterations 5
DILUPBiCGStab:  Solving for Uz, Initial residual = 0.474094, Final residual = 0.0154062, No Iterations 5
[INFO] MomentumPredictor: 2967.38 [ms]
[INFO] MatrixAssemblyPI: 345.546 [ms]
[INFO] AdjustPhi: 21.429 [ms]
[INFO] ConstrainPressure: 0.009 [ms]
[INFO] MatrixAssemblyPII: 98.232 [ms]
[OGL LOG][Proc: 0]: global_index_init: 0.283 [ms]
[OGL LOG][Proc: 0]p_local_coeffs: call_update: 0 [ms]
[OGL LOG][Proc: 0]p_non_local_coeffs: call_update: 0 [ms]
[OGL LOG][Proc: 0]p: update_local_matrix_data: 54.847 [ms]
[OGL LOG][Proc: 0]p: update_non_local_matrix_data: 0.243 [ms]
[OGL LOG][Proc: 0]p: regenerate_distributed_matrix: 193.956 [ms]
[OGL LOG][Proc: 0]p_matrix: call_update: 197.915 [ms]
[OGL LOG][Proc: 0]p_rhs: call_update: 8.786 [ms]
[OGL LOG][Proc: 0]p: init_precond: 0.058 [ms]
[OGL LOG][StoppingCriterion.H:239] Creating stopping criterion with minIter 1377 frequency 15
[OGL LOG][Proc: 0]p: generate_solver: 0.005 [ms]
[OGL LOG][Proc: 0]p: solve: 3126.48 [ms]
[OGL LOG][Proc: 0]p: copy_x_back: 9.023 [ms]
[OGL LOG][lduLduBase.H:330] 
Statistics:
	Time per iteration: 1361 [mu s]
	Time per residual norm calculation: 335.000000 [mu s]
	Time per iteration and DOF: 0.050407 [ns]
	Retrieve results bandwidth 2.992000 [GByte/s]
[OGL LOG][Proc: 0]p: solve_multi_gpu: 3351.49 [ms]
nonehipGKOCG:  Solving for p, Initial residual = 0.889503, Final residual = 9.68462e-05, No Iterations 2296
[INFO] SolveP: 3418.64 [ms]
time step continuity errors : sum local = 1.22578e-08, global = 8.27764e-22, cumulative = 1.44404e-20
[INFO] ContinuityError: 49.867 [ms]
[INFO] CorrectBoundary: 0.928 [ms]
[INFO] PISOStep: 4049.1 [ms]
[INFO] MatrixAssemblyPI: 338.144 [ms]
[INFO] AdjustPhi: 24.72 [ms]
[INFO] ConstrainPressure: 0.003 [ms]
[INFO] MatrixAssemblyPII: 100.196 [ms]
[OGL LOG][Proc: 0]: global_index_init: 0.16 [ms]
[OGL LOG][Proc: 0]p_local_coeffs: call_update: 0 [ms]
[OGL LOG][Proc: 0]p_non_local_coeffs: call_update: 0 [ms]
[OGL LOG][Proc: 0]p: update_local_matrix_data: 75.995 [ms]
[OGL LOG][Proc: 0]p: update_non_local_matrix_data: 0.231 [ms]
[OGL LOG][Proc: 0]p: regenerate_distributed_matrix: 177.562 [ms]
[OGL LOG][Proc: 0]p_matrix: call_update: 179.571 [ms]
[OGL LOG][Proc: 0]p_rhs: call_update: 12.959 [ms]
[OGL LOG][Proc: 0]p: init_precond: 0.055 [ms]
[OGL LOG][StoppingCriterion.H:239] Creating stopping criterion with minIter 1377 frequency 15
[OGL LOG][Proc: 0]p: generate_solver: 0.004 [ms]
[OGL LOG][Proc: 0]p: solve: 3145.31 [ms]
[OGL LOG][Proc: 0]p: copy_x_back: 9.425 [ms]
[OGL LOG][lduLduBase.H:330] 
Statistics:
	Time per iteration: 1369 [mu s]
	Time per residual norm calculation: 339.000000 [mu s]
	Time per iteration and DOF: 0.050704 [ns]
	Retrieve results bandwidth 2.864000 [GByte/s]
[OGL LOG][Proc: 0]p: solve_multi_gpu: 3355.13 [ms]
nonehipGKOCG:  Solving for p, Initial residual = 0.816821, Final residual = 9.48484e-05, No Iterations 2296
[INFO] SolveP: 3443.79 [ms]
time step continuity errors : sum local = 1.21068e-08, global = 2.00152e-21, cumulative = 1.64419e-20
[INFO] ContinuityError: 49.287 [ms]
[INFO] CorrectBoundary: 1.26 [ms]
[INFO] PISOStep: 4069.9 [ms]
[INFO] TimeStep: 11393.2 [ms]
ExecutionTime = 210.34 s  ClockTime = 181 s

Time = 0.002822

Courant Number mean: 0.0475331 max: 0.551145
[INFO] MatrixAssemblyU: 263.7 [ms]
DILUPBiCGStab:  Solving for Ux, Initial residual = 0.0150681, Final residual = 0.00114938, No Iterations 5
DILUPBiCGStab:  Solving for Uy, Initial residual = 0.0586161, Final residual = 0.00355378, No Iterations 5
DILUPBiCGStab:  Solving for Uz, Initial residual = 0.485573, Final residual = 0.0154528, No Iterations 5
[INFO] MomentumPredictor: 2969.35 [ms]
[INFO] MatrixAssemblyPI: 345.272 [ms]
[INFO] AdjustPhi: 18.845 [ms]
[INFO] ConstrainPressure: 0.004 [ms]
[INFO] MatrixAssemblyPII: 98.513 [ms]
[OGL LOG][Proc: 0]: global_index_init: 0.161 [ms]
[OGL LOG][Proc: 0]p_local_coeffs: call_update: 0 [ms]
[OGL LOG][Proc: 0]p_non_local_coeffs: call_update: 0 [ms]
[OGL LOG][Proc: 0]p: update_local_matrix_data: 62.206 [ms]
[OGL LOG][Proc: 0]p: update_non_local_matrix_data: 0.244 [ms]
[OGL LOG][Proc: 0]p: regenerate_distributed_matrix: 180.012 [ms]
[OGL LOG][Proc: 0]p_matrix: call_update: 181.997 [ms]
[OGL LOG][Proc: 0]p_rhs: call_update: 17.463 [ms]
[OGL LOG][Proc: 0]p: init_precond: 0.058 [ms]
[OGL LOG][StoppingCriterion.H:239] Creating stopping criterion with minIter 1377 frequency 15
[OGL LOG][Proc: 0]p: generate_solver: 0.004 [ms]
[OGL LOG][Proc: 0]p: solve: 3125.1 [ms]
[OGL LOG][Proc: 0]p: copy_x_back: 9.322 [ms]
[OGL LOG][lduLduBase.H:330] 
Statistics:
	Time per iteration: 1361 [mu s]
	Time per residual norm calculation: 340.000000 [mu s]
	Time per iteration and DOF: 0.050407 [ns]
	Retrieve results bandwidth 2.896000 [GByte/s]
[OGL LOG][Proc: 0]p: solve_multi_gpu: 3348.93 [ms]
nonehipGKOCG:  Solving for p, Initial residual = 0.904762, Final residual = 8.09701e-05, No Iterations 2296
[INFO] SolveP: 3422.89 [ms]
time step continuity errors : sum local = 1.03339e-08, global = 5.33255e-22, cumulative = 1.69752e-20
[INFO] ContinuityError: 49.426 [ms]
[INFO] CorrectBoundary: 1.633 [ms]
[INFO] PISOStep: 4047.55 [ms]
[INFO] MatrixAssemblyPI: 336.452 [ms]
[INFO] AdjustPhi: 25.815 [ms]
[INFO] ConstrainPressure: 0.004 [ms]
[INFO] MatrixAssemblyPII: 98.443 [ms]
[OGL LOG][Proc: 0]: global_index_init: 0.297 [ms]
[OGL LOG][Proc: 0]p_local_coeffs: call_update: 0 [ms]
[OGL LOG][Proc: 0]p_non_local_coeffs: call_update: 0 [ms]
[OGL LOG][Proc: 0]p: update_local_matrix_data: 68.65 [ms]
[OGL LOG][Proc: 0]p: update_non_local_matrix_data: 0.339 [ms]
[OGL LOG][Proc: 0]p: regenerate_distributed_matrix: 194.036 [ms]
[OGL LOG][Proc: 0]p_matrix: call_update: 195.993 [ms]
[OGL LOG][Proc: 0]p_rhs: call_update: 16.022 [ms]
[OGL LOG][Proc: 0]p: init_precond: 0.059 [ms]
[OGL LOG][StoppingCriterion.H:239] Creating stopping criterion with minIter 1377 frequency 15
[OGL LOG][Proc: 0]p: generate_solver: 0.004 [ms]
[OGL LOG][Proc: 0]p: solve: 3151.46 [ms]
[OGL LOG][Proc: 0]p: copy_x_back: 9.228 [ms]
[OGL LOG][lduLduBase.H:330] 
Statistics:
	Time per iteration: 1372 [mu s]
	Time per residual norm calculation: 334.000000 [mu s]
	Time per iteration and DOF: 0.050815 [ns]
	Retrieve results bandwidth 2.925000 [GByte/s]
[OGL LOG][Proc: 0]p: solve_multi_gpu: 3374.05 [ms]
nonehipGKOCG:  Solving for p, Initial residual = 0.840582, Final residual = 8.748e-05, No Iterations 2296
[INFO] SolveP: 3457.37 [ms]
time step continuity errors : sum local = 1.11153e-08, global = 2.12443e-22, cumulative = 1.71876e-20
[INFO] ContinuityError: 54.634 [ms]
[INFO] CorrectBoundary: 1.784 [ms]
[INFO] PISOStep: 4087.95 [ms]
[INFO] TimeStep: 11414.7 [ms]
ExecutionTime = 223.68 s  ClockTime = 192 s

Time = 0.002988

Courant Number mean: 0.0485163 max: 0.496216
[INFO] MatrixAssemblyU: 260.894 [ms]
DILUPBiCGStab:  Solving for Ux, Initial residual = 0.0151941, Final residual = 0.00115571, No Iterations 5
DILUPBiCGStab:  Solving for Uy, Initial residual = 0.0555336, Final residual = 0.00320632, No Iterations 5
DILUPBiCGStab:  Solving for Uz, Initial residual = 0.481759, Final residual = 0.0151867, No Iterations 5
[INFO] MomentumPredictor: 2964.02 [ms]
[INFO] MatrixAssemblyPI: 346.385 [ms]
[INFO] AdjustPhi: 18.379 [ms]
[INFO] ConstrainPressure: 0.004 [ms]
[INFO] MatrixAssemblyPII: 97.994 [ms]
[OGL LOG][Proc: 0]: global_index_init: 0.163 [ms]
[OGL LOG][Proc: 0]p_local_coeffs: call_update: 0 [ms]
[OGL LOG][Proc: 0]p_non_local_coeffs: call_update: 0 [ms]
[OGL LOG][Proc: 0]p: update_local_matrix_data: 54.224 [ms]
[OGL LOG][Proc: 0]p: update_non_local_matrix_data: 0.211 [ms]
[OGL LOG][Proc: 0]p: regenerate_distributed_matrix: 191.671 [ms]
[OGL LOG][Proc: 0]p_matrix: call_update: 193.629 [ms]
[OGL LOG][Proc: 0]p_rhs: call_update: 17.774 [ms]
[OGL LOG][Proc: 0]p: init_precond: 0.055 [ms]
[OGL LOG][StoppingCriterion.H:239] Creating stopping criterion with minIter 1377 frequency 15
[OGL LOG][Proc: 0]p: generate_solver: 0.004 [ms]
[OGL LOG][Proc: 0]p: solve: 3137.75 [ms]
[OGL LOG][Proc: 0]p: copy_x_back: 9.635 [ms]
[OGL LOG][lduLduBase.H:330] 
Statistics:
	Time per iteration: 1366 [mu s]
	Time per residual norm calculation: 327.000000 [mu s]
	Time per iteration and DOF: 0.050593 [ns]
	Retrieve results bandwidth 2.802000 [GByte/s]
[OGL LOG][Proc: 0]p: solve_multi_gpu: 3368.33 [ms]
nonehipGKOCG:  Solving for p, Initial residual = 0.89423, Final residual = 9.79444e-05, No Iterations 2296
[INFO] SolveP: 3435.12 [ms]
time step continuity errors : sum local = 1.29993e-08, global = 7.87287e-22, cumulative = 1.79749e-20
[INFO] ContinuityError: 50.802 [ms]
[INFO] CorrectBoundary: 1.787 [ms]
[INFO] PISOStep: 4061.55 [ms]
[INFO] MatrixAssemblyPI: 336.105 [ms]
[INFO] AdjustPhi: 19.016 [ms]
[INFO] ConstrainPressure: 0.004 [ms]
[INFO] MatrixAssemblyPII: 98.31 [ms]
[OGL LOG][Proc: 0]: global_index_init: 0.169 [ms]
[OGL LOG][Proc: 0]p_local_coeffs: call_update: 0 [ms]
[OGL LOG][Proc: 0]p_non_local_coeffs: call_update: 0 [ms]
[OGL LOG][Proc: 0]p: update_local_matrix_data: 60.822 [ms]
[OGL LOG][Proc: 0]p: update_non_local_matrix_data: 0.227 [ms]
[OGL LOG][Proc: 0]p: regenerate_distributed_matrix: 191.656 [ms]
[OGL LOG][Proc: 0]p_matrix: call_update: 193.604 [ms]
[OGL LOG][Proc: 0]p_rhs: call_update: 11.772 [ms]
[OGL LOG][Proc: 0]p: init_precond: 0.064 [ms]
[OGL LOG][StoppingCriterion.H:239] Creating stopping criterion with minIter 1377 frequency 15
[OGL LOG][Proc: 0]p: generate_solver: 0.003 [ms]
[OGL LOG][Proc: 0]p: solve: 3101.42 [ms]
[OGL LOG][Proc: 0]p: copy_x_back: 9.357 [ms]
[OGL LOG][lduLduBase.H:330] 
Statistics:
	Time per iteration: 1350 [mu s]
	Time per residual norm calculation: 337.000000 [mu s]
	Time per iteration and DOF: 0.050000 [ns]
	Retrieve results bandwidth 2.885000 [GByte/s]
[OGL LOG][Proc: 0]p: solve_multi_gpu: 3321.12 [ms]
nonehipGKOCG:  Solving for p, Initial residual = 0.820103, Final residual = 9.61262e-05, No Iterations 2296
[INFO] SolveP: 3395.16 [ms]
time step continuity errors : sum local = 1.28521e-08, global = 1.45003e-21, cumulative = 1.94249e-20
[INFO] ContinuityError: 50.895 [ms]
[INFO] CorrectBoundary: 1.616 [ms]
[INFO] PISOStep: 4012.7 [ms]
[INFO] TimeStep: 11343.2 [ms]
ExecutionTime = 236.96 s  ClockTime = 204 s

Time = 0.003154

Courant Number mean: 0.0495292 max: 0.562887
[INFO] MatrixAssemblyU: 262.533 [ms]
DILUPBiCGStab:  Solving for Ux, Initial residual = 0.0147903, Final residual = 0.00107262, No Iterations 5
DILUPBiCGStab:  Solving for Uy, Initial residual = 0.057142, Final residual = 0.00327082, No Iterations 5
DILUPBiCGStab:  Solving for Uz, Initial residual = 0.493595, Final residual = 0.0153002, No Iterations 5
[INFO] MomentumPredictor: 2971.4 [ms]
[INFO] MatrixAssemblyPI: 345.609 [ms]
[INFO] AdjustPhi: 18.089 [ms]
[INFO] ConstrainPressure: 0.005 [ms]
[INFO] MatrixAssemblyPII: 98.501 [ms]
[OGL LOG][Proc: 0]: global_index_init: 0.131 [ms]
[OGL LOG][Proc: 0]p_local_coeffs: call_update: 0 [ms]
[OGL LOG][Proc: 0]p_non_local_coeffs: call_update: 0 [ms]
[OGL LOG][Proc: 0]p: update_local_matrix_data: 67.162 [ms]
[OGL LOG][Proc: 0]p: update_non_local_matrix_data: 0.231 [ms]
[OGL LOG][Proc: 0]p: regenerate_distributed_matrix: 186.969 [ms]
[OGL LOG][Proc: 0]p_matrix: call_update: 188.965 [ms]
[OGL LOG][Proc: 0]p_rhs: call_update: 14.554 [ms]
[OGL LOG][Proc: 0]p: init_precond: 0.056 [ms]
[OGL LOG][StoppingCriterion.H:239] Creating stopping criterion with minIter 1377 frequency 15
[OGL LOG][Proc: 0]p: generate_solver: 0.004 [ms]
[OGL LOG][Proc: 0]p: solve: 3106.08 [ms]
[OGL LOG][Proc: 0]p: copy_x_back: 9.297 [ms]
[OGL LOG][lduLduBase.H:330] 
Statistics:
	Time per iteration: 1352 [mu s]
	Time per residual norm calculation: 329.000000 [mu s]
	Time per iteration and DOF: 0.050074 [ns]
	Retrieve results bandwidth 2.904000 [GByte/s]
[OGL LOG][Proc: 0]p: solve_multi_gpu: 3324.62 [ms]
nonehipGKOCG:  Solving for p, Initial residual = 0.907499, Final residual = 9.53283e-05, No Iterations 2296
[INFO] SolveP: 3403.91 [ms]
time step continuity errors : sum local = 1.28274e-08, global = 9.74186e-22, cumulative = 2.03991e-20
[INFO] ContinuityError: 48.766 [ms]
[INFO] CorrectBoundary: 1.97 [ms]
[INFO] PISOStep: 4028.36 [ms]
[INFO] MatrixAssemblyPI: 337.486 [ms]
[INFO] AdjustPhi: 18.552 [ms]
[INFO] ConstrainPressure: 0.005 [ms]
[INFO] MatrixAssemblyPII: 98.144 [ms]
[OGL LOG][Proc: 0]: global_index_init: 0.224 [ms]
[OGL LOG][Proc: 0]p_local_coeffs: call_update: 0 [ms]
[OGL LOG][Proc: 0]p_non_local_coeffs: call_update: 0 [ms]
[OGL LOG][Proc: 0]p: update_local_matrix_data: 59.298 [ms]
[OGL LOG][Proc: 0]p: update_non_local_matrix_data: 0.215 [ms]
[OGL LOG][Proc: 0]p: regenerate_distributed_matrix: 199.973 [ms]
[OGL LOG][Proc: 0]p_matrix: call_update: 201.934 [ms]
[OGL LOG][Proc: 0]p_rhs: call_update: 20.056 [ms]
[OGL LOG][Proc: 0]p: init_precond: 0.056 [ms]
[OGL LOG][StoppingCriterion.H:239] Creating stopping criterion with minIter 1377 frequency 15
[OGL LOG][Proc: 0]p: generate_solver: 0.004 [ms]
[OGL LOG][Proc: 0]p: solve: 3104.07 [ms]
[OGL LOG][Proc: 0]p: copy_x_back: 9.672 [ms]
[OGL LOG][lduLduBase.H:330] 
Statistics:
	Time per iteration: 1351 [mu s]
	Time per residual norm calculation: 341.000000 [mu s]
	Time per iteration and DOF: 0.050037 [ns]
	Retrieve results bandwidth 2.791000 [GByte/s]
[OGL LOG][Proc: 0]p: solve_multi_gpu: 3337.87 [ms]
nonehipGKOCG:  Solving for p, Initial residual = 0.840491, Final residual = 9.59571e-05, No Iterations 2296
[INFO] SolveP: 3409.08 [ms]
time step continuity errors : sum local = 1.28689e-08, global = 3.37474e-22, cumulative = 2.07366e-20
[INFO] ContinuityError: 49.277 [ms]
[INFO] CorrectBoundary: 2.897 [ms]
[INFO] PISOStep: 4028.39 [ms]
[INFO] TimeStep: 11337.9 [ms]
ExecutionTime = 250.24 s  ClockTime = 215 s

Time = 0.00332

Courant Number mean: 0.050419 max: 0.499826
[INFO] MatrixAssemblyU: 262.577 [ms]
DILUPBiCGStab:  Solving for Ux, Initial residual = 0.0150196, Final residual = 0.00108485, No Iterations 5
DILUPBiCGStab:  Solving for Uy, Initial residual = 0.0548321, Final residual = 0.00297797, No Iterations 5
DILUPBiCGStab:  Solving for Uz, Initial residual = 0.491859, Final residual = 0.0151557, No Iterations 5
[INFO] MomentumPredictor: 2977.15 [ms]
[INFO] MatrixAssemblyPI: 343.255 [ms]
[INFO] AdjustPhi: 21.173 [ms]
[INFO] ConstrainPressure: 0.004 [ms]
[INFO] MatrixAssemblyPII: 98.201 [ms]
[OGL LOG][Proc: 0]: global_index_init: 0.16 [ms]
[OGL LOG][Proc: 0]p_local_coeffs: call_update: 0 [ms]
[OGL LOG][Proc: 0]p_non_local_coeffs: call_update: 0 [ms]
[OGL LOG][Proc: 0]p: update_local_matrix_data: 54.019 [ms]
[OGL LOG][Proc: 0]p: update_non_local_matrix_data: 0.25 [ms]
[OGL LOG][Proc: 0]p: regenerate_distributed_matrix: 197.889 [ms]
[OGL LOG][Proc: 0]p_matrix: call_update: 199.843 [ms]
[OGL LOG][Proc: 0]p_rhs: call_update: 16.778 [ms]
[OGL LOG][Proc: 0]p: init_precond: 0.067 [ms]
[OGL LOG][StoppingCriterion.H:239] Creating stopping criterion with minIter 1377 frequency 17
[OGL LOG][Proc: 0]p: generate_solver: 0.004 [ms]
[OGL LOG][Proc: 0]p: solve: 3129.8 [ms]
[OGL LOG][Proc: 0]p: copy_x_back: 9.361 [ms]
[OGL LOG][lduLduBase.H:330] 
Statistics:
	Time per iteration: 1353 [mu s]
	Time per residual norm calculation: 307.000000 [mu s]
	Time per iteration and DOF: 0.050111 [ns]
	Retrieve results bandwidth 2.884000 [GByte/s]
[OGL LOG][Proc: 0]p: solve_multi_gpu: 3366.65 [ms]
nonehipGKOCG:  Solving for p, Initial residual = 0.899813, Final residual = 7.2506e-05, No Iterations 2313
[INFO] SolveP: 3433.26 [ms]
time step continuity errors : sum local = 1.01395e-08, global = -5.36332e-23, cumulative = 2.0683e-20
[INFO] ContinuityError: 50.601 [ms]
[INFO] CorrectBoundary: 2.609 [ms]
[INFO] PISOStep: 4060.11 [ms]
[INFO] MatrixAssemblyPI: 336.843 [ms]
[INFO] AdjustPhi: 21.449 [ms]
[INFO] ConstrainPressure: 0.004 [ms]
[INFO] MatrixAssemblyPII: 98.167 [ms]
[OGL LOG][Proc: 0]: global_index_init: 0.158 [ms]
[OGL LOG][Proc: 0]p_local_coeffs: call_update: 0 [ms]
[OGL LOG][Proc: 0]p_non_local_coeffs: call_update: 0 [ms]
[OGL LOG][Proc: 0]p: update_local_matrix_data: 54.765 [ms]
[OGL LOG][Proc: 0]p: update_non_local_matrix_data: 0.231 [ms]
[OGL LOG][Proc: 0]p: regenerate_distributed_matrix: 195.583 [ms]
[OGL LOG][Proc: 0]p_matrix: call_update: 197.533 [ms]
[OGL LOG][Proc: 0]p_rhs: call_update: 10.426 [ms]
[OGL LOG][Proc: 0]p: init_precond: 0.055 [ms]
[OGL LOG][StoppingCriterion.H:239] Creating stopping criterion with minIter 1387 frequency 15
[OGL LOG][Proc: 0]p: generate_solver: 0.004 [ms]
[OGL LOG][Proc: 0]p: solve: 3126.83 [ms]
[OGL LOG][Proc: 0]p: copy_x_back: 9.413 [ms]
[OGL LOG][lduLduBase.H:330] 
Statistics:
	Time per iteration: 1361 [mu s]
	Time per residual norm calculation: 306.000000 [mu s]
	Time per iteration and DOF: 0.050407 [ns]
	Retrieve results bandwidth 2.868000 [GByte/s]
[OGL LOG][Proc: 0]p: solve_multi_gpu: 3351.59 [ms]
nonehipGKOCG:  Solving for p, Initial residual = 0.82478, Final residual = 9.36056e-05, No Iterations 2296
[INFO] SolveP: 3418.22 [ms]
time step continuity errors : sum local = 1.31746e-08, global = 1.01314e-21, cumulative = 2.16961e-20
[INFO] ContinuityError: 49.992 [ms]
[INFO] CorrectBoundary: 1.618 [ms]
[INFO] PISOStep: 4038.77 [ms]
[INFO] TimeStep: 11383 [ms]
ExecutionTime = 263.54 s  ClockTime = 226 s

End

Finalising parallel run
