/*---------------------------------------------------------------------------*\
| =========                 |                                                 |
| \\      /  F ield         | OpenFOAM: The Open Source CFD Toolbox           |
|  \\    /   O peration     | Version:  v2106                                 |
|   \\  /    A nd           | Website:  www.openfoam.com                      |
|    \\/     M anipulation  |                                                 |
\*---------------------------------------------------------------------------*/
Build  : f815a12bba-20210902 OPENFOAM=2106
Arch   : "LSB;label=32;scalar=64"
Exec   : icoFoam -parallel -case /home/greole/data/code/exasim_project/micro_benchmarks/LidDrivenCavity3D/workspace/60b9c3d29d086e917f10fa5f341a6dc1/case
Date   : Jun 26 2023
Time   : 16:49:18
Host   : nla-gpu2.ianm.kit.edu
PID    : 78252
I/O    : uncollated
Case   : /home/greole/data/code/exasim_project/micro_benchmarks/LidDrivenCavity3D/workspace/60b9c3d29d086e917f10fa5f341a6dc1/case
nProcs : 8
Hosts  :
(
    (nla-gpu2.ianm.kit.edu 8)
)
Pstream initialized with:
    floatTransfer      : 0
    nProcsSimpleSum    : 0
    commsType          : nonBlocking
    polling iterations : 0
trapFpe: Floating point exception trapping enabled (FOAM_SIGFPE).
fileModificationChecking : Monitoring run-time modified files using timeStampMaster (fileModificationSkew 5, maxFileModificationPolls 20)
allowSystemOperations : Allowing user-supplied system call operations

// * * * * * * * * * * * * * * * * * * * * * * * * * * * * * * * * * * * * * //
Create time

--> FOAM Warning : 
    From void* Foam::dlLibraryTable::openLibrary(const Foam::fileName&, bool)
    in file db/dynamicLibrary/dlLibraryTable/dlLibraryTable.C at line 188
    Could not load "libpetscFoam.so"
libpetscFoam.so: cannot open shared object file: No such file or directory
--> FOAM Warning : 
    From virtual void Foam::Time::readDict()
    in file db/Time/TimeIO.C at line 411
    Reading "/home/greole/data/code/exasim_project/micro_benchmarks/LidDrivenCavity3D/workspace/60b9c3d29d086e917f10fa5f341a6dc1/case/system/controlDict" at line 17 to 47
    Disabled binary format compression (inefficient/ineffective)
Create mesh for time = 0


PISO: Operating solver in PISO mode

Reading transportProperties

Reading field p

Reading field U

Reading/calculating face flux field phi


Starting time loop

Time = 0.000125

Courant Number mean: 8.02505e-18 max: 4.85723e-14
[INFO] MatrixAssemblyU: 2241.58 [ms]
DILUPBiCGStab:  Solving for Ux, Initial residual = 1, Final residual = 0.0211815, No Iterations 5
DILUPBiCGStab:  Solving for Uy:  solution singularity
DILUPBiCGStab:  Solving for Uz:  solution singularity
[INFO] MomentumPredictor: 9264.98 [ms]
[INFO] MatrixAssemblyPI: 2647.6 [ms]
[INFO] AdjustPhi: 418.729 [ms]
[INFO] ConstrainPressure: 0.007 [ms]
[INFO] MatrixAssemblyPII: 670.505 [ms]
nonePCG:  Solving for p, Initial residual = 1, Final residual = 9.89379e-05, No Iterations 3251
[INFO] SolveP: 824262 [ms]
time step continuity errors : sum local = 2.51565e-09, global = -2.65081e-21, cumulative = -2.65081e-21
[INFO] ContinuityError: 417.703 [ms]
[INFO] CorrectBoundary: 116.274 [ms]
[INFO] PISOStep: 829493 [ms]
[INFO] MatrixAssemblyPI: 2491.26 [ms]
[INFO] AdjustPhi: 308.725 [ms]
[INFO] ConstrainPressure: 0.003 [ms]
[INFO] MatrixAssemblyPII: 676.304 [ms]
nonePCG:  Solving for p, Initial residual = 0.822352, Final residual = 9.85525e-05, No Iterations 3236
[INFO] SolveP: 820027 [ms]
time step continuity errors : sum local = 3.01797e-09, global = 1.12281e-22, cumulative = -2.53852e-21
[INFO] ContinuityError: 414.989 [ms]
[INFO] CorrectBoundary: 61.273 [ms]
[INFO] PISOStep: 824968 [ms]
[INFO] TimeStep: 1.66627e+06 [ms]
ExecutionTime = 1665.8 s  ClockTime = 1672 s

Time = 0.00025

Courant Number mean: 0.0108822 max: 0.437683
[INFO] MatrixAssemblyU: 2082.55 [ms]
DILUPBiCGStab:  Solving for Ux, Initial residual = 0.108151, Final residual = 0.0127621, No Iterations 5
DILUPBiCGStab:  Solving for Uy, Initial residual = 0.484293, Final residual = 0.0502291, No Iterations 5
DILUPBiCGStab:  Solving for Uz, Initial residual = 0.996435, Final residual = 0.114507, No Iterations 5
[INFO] MomentumPredictor: 16836.5 [ms]
[INFO] MatrixAssemblyPI: 2530.59 [ms]
[INFO] AdjustPhi: 380.706 [ms]
[INFO] ConstrainPressure: 0.003 [ms]
[INFO] MatrixAssemblyPII: 644.165 [ms]
nonePCG:  Solving for p, Initial residual = 0.905671, Final residual = 9.94172e-05, No Iterations 3187
[INFO] SolveP: 808242 [ms]
time step continuity errors : sum local = 6.9471e-09, global = 1.82406e-22, cumulative = -2.35612e-21
[INFO] ContinuityError: 397.482 [ms]
[INFO] CorrectBoundary: 155.551 [ms]
[INFO] PISOStep: 813215 [ms]
[INFO] MatrixAssemblyPI: 2302.97 [ms]
[INFO] AdjustPhi: 560.666 [ms]
[INFO] ConstrainPressure: 0.003 [ms]
[INFO] MatrixAssemblyPII: 651.682 [ms]
nonePCG:  Solving for p, Initial residual = 0.856952, Final residual = 9.88122e-05, No Iterations 3182
[INFO] SolveP: 805006 [ms]
time step continuity errors : sum local = 7.03312e-09, global = 5.05253e-22, cumulative = -1.85087e-21
[INFO] ContinuityError: 389.53 [ms]
[INFO] CorrectBoundary: 185.596 [ms]
[INFO] PISOStep: 809972 [ms]
[INFO] TimeStep: 1.64249e+06 [ms]
ExecutionTime = 3301.86 s  ClockTime = 3314 s

Time = 0.000375

Courant Number mean: 0.016989 max: 0.511334
[INFO] MatrixAssemblyU: 2067.1 [ms]
DILUPBiCGStab:  Solving for Ux, Initial residual = 0.0537302, Final residual = 0.00524958, No Iterations 5
DILUPBiCGStab:  Solving for Uy, Initial residual = 0.261853, Final residual = 0.0256294, No Iterations 5
DILUPBiCGStab:  Solving for Uz, Initial residual = 0.87548, Final residual = 0.0870197, No Iterations 5
[INFO] MomentumPredictor: 16890.7 [ms]
[INFO] MatrixAssemblyPI: 2239.26 [ms]
[INFO] AdjustPhi: 683.772 [ms]
[INFO] ConstrainPressure: 0.002 [ms]
[INFO] MatrixAssemblyPII: 657.5 [ms]
nonePCG:  Solving for p, Initial residual = 0.940504, Final residual = 9.8326e-05, No Iterations 1538
[INFO] SolveP: 390459 [ms]
time step continuity errors : sum local = 8.89586e-09, global = 1.54838e-23, cumulative = -1.83538e-21
[INFO] ContinuityError: 400.091 [ms]
[INFO] CorrectBoundary: 189.571 [ms]
[INFO] PISOStep: 395501 [ms]
[INFO] MatrixAssemblyPI: 2268.04 [ms]
[INFO] AdjustPhi: 526.367 [ms]
[INFO] ConstrainPressure: 0.003 [ms]
[INFO] MatrixAssemblyPII: 655.417 [ms]
nonePCG:  Solving for p, Initial residual = 0.90876, Final residual = 9.95628e-05, No Iterations 1534
[INFO] SolveP: 388497 [ms]
time step continuity errors : sum local = 8.77627e-09, global = 2.18198e-22, cumulative = -1.61718e-21
[INFO] ContinuityError: 401.467 [ms]
[INFO] CorrectBoundary: 159.422 [ms]
[INFO] PISOStep: 393371 [ms]
[INFO] TimeStep: 808206 [ms]
ExecutionTime = 4106.82 s  ClockTime = 4123 s

Time = 0.0005

Courant Number mean: 0.0206053 max: 0.477586
[INFO] MatrixAssemblyU: 2033.7 [ms]
DILUPBiCGStab:  Solving for Ux, Initial residual = 0.0416106, Final residual = 0.004863, No Iterations 5
DILUPBiCGStab:  Solving for Uy, Initial residual = 0.214079, Final residual = 0.0232205, No Iterations 5
DILUPBiCGStab:  Solving for Uz, Initial residual = 0.781458, Final residual = 0.0641283, No Iterations 5
[INFO] MomentumPredictor: 16822.8 [ms]
[INFO] MatrixAssemblyPI: 2499.89 [ms]
[INFO] AdjustPhi: 427.392 [ms]
[INFO] ConstrainPressure: 0.003 [ms]
[INFO] MatrixAssemblyPII: 666.255 [ms]
nonePCG:  Solving for p, Initial residual = 0.936934, Final residual = 9.69536e-05, No Iterations 1534
[INFO] SolveP: 389729 [ms]
time step continuity errors : sum local = 1.08971e-08, global = 5.81094e-22, cumulative = -1.03609e-21
[INFO] ContinuityError: 396.536 [ms]
[INFO] CorrectBoundary: 164.559 [ms]
[INFO] PISOStep: 394702 [ms]
[INFO] MatrixAssemblyPI: 2295.21 [ms]
[INFO] AdjustPhi: 551.74 [ms]
[INFO] ConstrainPressure: 0.003 [ms]
[INFO] MatrixAssemblyPII: 665.781 [ms]
nonePCG:  Solving for p, Initial residual = 0.879627, Final residual = 9.99854e-05, No Iterations 1512
[INFO] SolveP: 382781 [ms]
time step continuity errors : sum local = 1.10798e-08, global = -6.23229e-23, cumulative = -1.09841e-21
[INFO] ContinuityError: 396.819 [ms]
[INFO] CorrectBoundary: 165.114 [ms]
[INFO] PISOStep: 387697 [ms]
[INFO] TimeStep: 801638 [ms]
ExecutionTime = 4905.35 s  ClockTime = 4924 s

Time = 0.000625

Courant Number mean: 0.0236937 max: 0.555601
[INFO] MatrixAssemblyU: 2073.66 [ms]
DILUPBiCGStab:  Solving for Ux, Initial residual = 0.037614, Final residual = 0.00440389, No Iterations 5
DILUPBiCGStab:  Solving for Uy, Initial residual = 0.184691, Final residual = 0.0189843, No Iterations 5
DILUPBiCGStab:  Solving for Uz, Initial residual = 0.752131, Final residual = 0.0549275, No Iterations 5
[INFO] MomentumPredictor: 16756.7 [ms]
[INFO] MatrixAssemblyPI: 2070.89 [ms]
[INFO] AdjustPhi: 782.998 [ms]
[INFO] ConstrainPressure: 0.003 [ms]
[INFO] MatrixAssemblyPII: 665.063 [ms]
nonePCG:  Solving for p, Initial residual = 0.953552, Final residual = 9.99698e-05, No Iterations 2908
[INFO] SolveP: 737989 [ms]
time step continuity errors : sum local = 1.23526e-08, global = 4.03612e-22, cumulative = -6.948e-22
[INFO] ContinuityError: 389.406 [ms]
[INFO] CorrectBoundary: 165.398 [ms]
[INFO] PISOStep: 742892 [ms]
[INFO] MatrixAssemblyPI: 2315.89 [ms]
[INFO] AdjustPhi: 500.374 [ms]
[INFO] ConstrainPressure: 0.004 [ms]
[INFO] MatrixAssemblyPII: 664.957 [ms]
nonePCG:  Solving for p, Initial residual = 0.915155, Final residual = 9.94173e-05, No Iterations 2887
[INFO] SolveP: 730475 [ms]
time step continuity errors : sum local = 1.22108e-08, global = 4.17545e-22, cumulative = -2.77255e-22
[INFO] ContinuityError: 388.301 [ms]
[INFO] CorrectBoundary: 164.134 [ms]
[INFO] PISOStep: 735371 [ms]
[INFO] TimeStep: 1.49747e+06 [ms]
ExecutionTime = 6396.97 s  ClockTime = 6422 s

Time = 0.00075

Courant Number mean: 0.0260431 max: 0.483405
[INFO] MatrixAssemblyU: 2051.23 [ms]
DILUPBiCGStab:  Solving for Ux, Initial residual = 0.0354403, Final residual = 0.00412775, No Iterations 5
DILUPBiCGStab:  Solving for Uy, Initial residual = 0.171449, Final residual = 0.0161235, No Iterations 5
DILUPBiCGStab:  Solving for Uz, Initial residual = 0.700708, Final residual = 0.0471622, No Iterations 5
[INFO] MomentumPredictor: 16772.4 [ms]
[INFO] MatrixAssemblyPI: 2162.99 [ms]
[INFO] AdjustPhi: 736.019 [ms]
[INFO] ConstrainPressure: 0.003 [ms]
[INFO] MatrixAssemblyPII: 666.032 [ms]
nonePCG:  Solving for p, Initial residual = 0.950372, Final residual = 9.99968e-05, No Iterations 3091
[INFO] SolveP: 784763 [ms]
time step continuity errors : sum local = 1.42453e-08, global = 7.08422e-22, cumulative = 4.31167e-22
[INFO] ContinuityError: 395.734 [ms]
[INFO] CorrectBoundary: 163.986 [ms]
[INFO] PISOStep: 789704 [ms]
[INFO] MatrixAssemblyPI: 2286.74 [ms]
[INFO] AdjustPhi: 563.041 [ms]
[INFO] ConstrainPressure: 0.007 [ms]
[INFO] MatrixAssemblyPII: 665.851 [ms]
nonePCG:  Solving for p, Initial residual = 0.890733, Final residual = 9.81139e-05, No Iterations 3088
[INFO] SolveP: 781440 [ms]
time step continuity errors : sum local = 1.41996e-08, global = 5.1629e-22, cumulative = 9.47457e-22
[INFO] ContinuityError: 399.466 [ms]
[INFO] CorrectBoundary: 163.647 [ms]
[INFO] PISOStep: 786372 [ms]
[INFO] TimeStep: 1.5953e+06 [ms]
ExecutionTime = 7986 s  ClockTime = 8017 s

Time = 0.000875

Courant Number mean: 0.028264 max: 0.611474
[INFO] MatrixAssemblyU: 2071.82 [ms]
DILUPBiCGStab:  Solving for Ux, Initial residual = 0.0350652, Final residual = 0.00388794, No Iterations 5
DILUPBiCGStab:  Solving for Uy, Initial residual = 0.176353, Final residual = 0.0153434, No Iterations 5
DILUPBiCGStab:  Solving for Uz, Initial residual = 0.690801, Final residual = 0.0405319, No Iterations 5
[INFO] MomentumPredictor: 16813.5 [ms]
[INFO] MatrixAssemblyPI: 2368.01 [ms]
[INFO] AdjustPhi: 513.379 [ms]
[INFO] ConstrainPressure: 0.003 [ms]
[INFO] MatrixAssemblyPII: 664.824 [ms]
nonePCG:  Solving for p, Initial residual = 0.961384, Final residual = 9.96235e-05, No Iterations 1510
[INFO] SolveP: 383107 [ms]
time step continuity errors : sum local = 1.77981e-08, global = 8.98318e-22, cumulative = 1.84578e-21
[INFO] ContinuityError: 390.498 [ms]
[INFO] CorrectBoundary: 161.974 [ms]
[INFO] PISOStep: 388038 [ms]
[INFO] MatrixAssemblyPI: 2275.22 [ms]
[INFO] AdjustPhi: 584.316 [ms]
[INFO] ConstrainPressure: 0.003 [ms]
[INFO] MatrixAssemblyPII: 665.763 [ms]
nonePCG:  Solving for p, Initial residual = 0.917527, Final residual = 9.93718e-05, No Iterations 1488
[INFO] SolveP: 376636 [ms]
time step continuity errors : sum local = 1.6544e-08, global = 3.28753e-22, cumulative = 2.17453e-21
[INFO] ContinuityError: 392.969 [ms]
[INFO] CorrectBoundary: 164.911 [ms]
[INFO] PISOStep: 381561 [ms]
[INFO] TimeStep: 788882 [ms]
ExecutionTime = 8771.78 s  ClockTime = 8806 s

Time = 0.001

Courant Number mean: 0.0300285 max: 0.490999
[INFO] MatrixAssemblyU: 2078.78 [ms]
DILUPBiCGStab:  Solving for Ux, Initial residual = 0.0361302, Final residual = 0.00371952, No Iterations 5
DILUPBiCGStab:  Solving for Uy, Initial residual = 0.170611, Final residual = 0.0133734, No Iterations 5
DILUPBiCGStab:  Solving for Uz, Initial residual = 0.683732, Final residual = 0.0407094, No Iterations 5
[INFO] MomentumPredictor: 16761.7 [ms]
[INFO] MatrixAssemblyPI: 2524.08 [ms]
[INFO] AdjustPhi: 364.899 [ms]
[INFO] ConstrainPressure: 0.003 [ms]
[INFO] MatrixAssemblyPII: 665.834 [ms]
nonePCG:  Solving for p, Initial residual = 0.959296, Final residual = 9.89707e-05, No Iterations 3076
[INFO] SolveP: 780981 [ms]
time step continuity errors : sum local = 1.83775e-08, global = -1.2113e-22, cumulative = 2.0534e-21
[INFO] ContinuityError: 393.413 [ms]
[INFO] CorrectBoundary: 164.63 [ms]
[INFO] PISOStep: 785916 [ms]
[INFO] MatrixAssemblyPI: 2291.16 [ms]
[INFO] AdjustPhi: 553.326 [ms]
[INFO] ConstrainPressure: 0.003 [ms]
[INFO] MatrixAssemblyPII: 666.153 [ms]
nonePCG:  Solving for p, Initial residual = 0.897608, Final residual = 9.91714e-05, No Iterations 3072
[INFO] SolveP: 777533 [ms]
time step continuity errors : sum local = 1.86908e-08, global = 8.15258e-22, cumulative = 2.86866e-21
[INFO] ContinuityError: 391.356 [ms]
[INFO] CorrectBoundary: 162.717 [ms]
[INFO] PISOStep: 782444 [ms]
[INFO] TimeStep: 1.5876e+06 [ms]
ExecutionTime = 10353.2 s  ClockTime = 10394 s

Time = 0.001125

Courant Number mean: 0.0318575 max: 0.695097
[INFO] MatrixAssemblyU: 2080.82 [ms]
DILUPBiCGStab:  Solving for Ux, Initial residual = 0.0375848, Final residual = 0.00355565, No Iterations 5
DILUPBiCGStab:  Solving for Uy, Initial residual = 0.187421, Final residual = 0.0136919, No Iterations 5
DILUPBiCGStab:  Solving for Uz, Initial residual = 0.691794, Final residual = 0.0363787, No Iterations 5
[INFO] MomentumPredictor: 16773.2 [ms]
[INFO] MatrixAssemblyPI: 2461.97 [ms]
[INFO] AdjustPhi: 447.447 [ms]
[INFO] ConstrainPressure: 0.003 [ms]
[INFO] MatrixAssemblyPII: 649.331 [ms]
nonePCG:  Solving for p, Initial residual = 0.96738, Final residual = 9.60468e-05, No Iterations 3072
[INFO] SolveP: 780307 [ms]
time step continuity errors : sum local = 2.04909e-08, global = 4.02081e-22, cumulative = 3.27074e-21
[INFO] ContinuityError: 390.421 [ms]
[INFO] CorrectBoundary: 163.342 [ms]
[INFO] PISOStep: 785268 [ms]
[INFO] MatrixAssemblyPI: 2224.28 [ms]
[INFO] AdjustPhi: 588.242 [ms]
[INFO] ConstrainPressure: 0.003 [ms]
[INFO] MatrixAssemblyPII: 664.24 [ms]
nonePCG:  Solving for p, Initial residual = 0.918573, Final residual = 9.85588e-05, No Iterations 3069
[INFO] SolveP: 773750 [ms]
time step continuity errors : sum local = 2.10015e-08, global = 2.45737e-22, cumulative = 3.51647e-21
[INFO] ContinuityError: 378.02 [ms]
[INFO] CorrectBoundary: 160.674 [ms]
[INFO] PISOStep: 778619 [ms]
[INFO] TimeStep: 1.58313e+06 [ms]
ExecutionTime = 11930.3 s  ClockTime = 11977 s

Time = 0.00125

Courant Number mean: 0.0332841 max: 0.507061
[INFO] MatrixAssemblyU: 2082.69 [ms]
DILUPBiCGStab:  Solving for Ux, Initial residual = 0.0409903, Final residual = 0.00360933, No Iterations 5
DILUPBiCGStab:  Solving for Uy, Initial residual = 0.186291, Final residual = 0.0121124, No Iterations 5
DILUPBiCGStab:  Solving for Uz, Initial residual = 0.691451, Final residual = 0.034936, No Iterations 5
[INFO] MomentumPredictor: 16852.5 [ms]
[INFO] MatrixAssemblyPI: 2445.4 [ms]
[INFO] AdjustPhi: 424.79 [ms]
[INFO] ConstrainPressure: 0.003 [ms]
[INFO] MatrixAssemblyPII: 652.417 [ms]
nonePCG:  Solving for p, Initial residual = 0.966738, Final residual = 9.93834e-05, No Iterations 3072
[INFO] SolveP: 770302 [ms]
time step continuity errors : sum local = 2.47321e-08, global = 1.21809e-21, cumulative = 4.73457e-21
[INFO] ContinuityError: 361.603 [ms]
[INFO] CorrectBoundary: 180.459 [ms]
[INFO] PISOStep: 775219 [ms]
[INFO] MatrixAssemblyPI: 2197.3 [ms]
[INFO] AdjustPhi: 556.361 [ms]
[INFO] ConstrainPressure: 0.003 [ms]
[INFO] MatrixAssemblyPII: 654.245 [ms]
nonePCG:  Solving for p, Initial residual = 0.903522, Final residual = 9.91658e-05, No Iterations 3069
[INFO] SolveP: 763832 [ms]
time step continuity errors : sum local = 2.50132e-08, global = 9.18642e-22, cumulative = 5.65321e-21
[INFO] ContinuityError: 382.449 [ms]
[INFO] CorrectBoundary: 175.635 [ms]
[INFO] PISOStep: 768647 [ms]
[INFO] TimeStep: 1.56318e+06 [ms]
ExecutionTime = 13487.2 s  ClockTime = 13540 s

Time = 0.001375

Courant Number mean: 0.0349053 max: 0.825991
[INFO] MatrixAssemblyU: 2082.68 [ms]
DILUPBiCGStab:  Solving for Ux, Initial residual = 0.0438232, Final residual = 0.00346188, No Iterations 5
DILUPBiCGStab:  Solving for Uy, Initial residual = 0.210346, Final residual = 0.0131312, No Iterations 5
DILUPBiCGStab:  Solving for Uz, Initial residual = 0.706479, Final residual = 0.0344328, No Iterations 5
[INFO] MomentumPredictor: 16699.9 [ms]
[INFO] MatrixAssemblyPI: 2280.57 [ms]
[INFO] AdjustPhi: 469.319 [ms]
[INFO] ConstrainPressure: 0.003 [ms]
[INFO] MatrixAssemblyPII: 667.879 [ms]
nonePCG:  Solving for p, Initial residual = 0.972365, Final residual = 9.79168e-05, No Iterations 3072
[INFO] SolveP: 760875 [ms]
time step continuity errors : sum local = 2.83443e-08, global = -6.97358e-22, cumulative = 4.95585e-21
[INFO] ContinuityError: 377.202 [ms]
[INFO] CorrectBoundary: 173.086 [ms]
[INFO] PISOStep: 765667 [ms]
[INFO] MatrixAssemblyPI: 2199.6 [ms]
[INFO] AdjustPhi: 525.969 [ms]
[INFO] ConstrainPressure: 0.006 [ms]
[INFO] MatrixAssemblyPII: 667.706 [ms]
nonePCG:  Solving for p, Initial residual = 0.919626, Final residual = 9.98307e-05, No Iterations 3068
[INFO] SolveP: 760122 [ms]
time step continuity errors : sum local = 2.89214e-08, global = 5.72978e-22, cumulative = 5.52883e-21
[INFO] ContinuityError: 382.398 [ms]
[INFO] CorrectBoundary: 164.95 [ms]
[INFO] PISOStep: 764902 [ms]
[INFO] TimeStep: 1.54971e+06 [ms]
ExecutionTime = 15030.7 s  ClockTime = 15090 s

Time = 0.0015

Courant Number mean: 0.036114 max: 0.598571
[INFO] MatrixAssemblyU: 2083.5 [ms]
DILUPBiCGStab:  Solving for Ux, Initial residual = 0.0494267, Final residual = 0.00366172, No Iterations 5
DILUPBiCGStab:  Solving for Uy, Initial residual = 0.214927, Final residual = 0.0120599, No Iterations 5
DILUPBiCGStab:  Solving for Uz, Initial residual = 0.710654, Final residual = 0.0339129, No Iterations 5
[INFO] MomentumPredictor: 16527.7 [ms]
[INFO] MatrixAssemblyPI: 2340.76 [ms]
[INFO] AdjustPhi: 470.572 [ms]
[INFO] ConstrainPressure: 0.003 [ms]
[INFO] MatrixAssemblyPII: 665.309 [ms]
nonePCG:  Solving for p, Initial residual = 0.972627, Final residual = 9.64413e-05, No Iterations 3073
[INFO] SolveP: 761603 [ms]
time step continuity errors : sum local = 3.27855e-08, global = 3.21967e-22, cumulative = 5.8508e-21
[INFO] ContinuityError: 381.147 [ms]
[INFO] CorrectBoundary: 172.333 [ms]
[INFO] PISOStep: 766462 [ms]
[INFO] MatrixAssemblyPI: 2270.77 [ms]
[INFO] AdjustPhi: 467.04 [ms]
[INFO] ConstrainPressure: 0.003 [ms]
[INFO] MatrixAssemblyPII: 666.671 [ms]
nonePCG:  Solving for p, Initial residual = 0.908673, Final residual = 9.82552e-05, No Iterations 3069
[INFO] SolveP: 756213 [ms]
time step continuity errors : sum local = 3.38138e-08, global = 5.86309e-22, cumulative = 6.43711e-21
[INFO] ContinuityError: 374.573 [ms]
[INFO] CorrectBoundary: 162.331 [ms]
[INFO] PISOStep: 760983 [ms]
[INFO] TimeStep: 1.54643e+06 [ms]
ExecutionTime = 16570.8 s  ClockTime = 16636 s

Time = 0.001625

Courant Number mean: 0.0376313 max: 1.1447
[INFO] MatrixAssemblyU: 2080.81 [ms]
DILUPBiCGStab:  Solving for Ux, Initial residual = 0.0541994, Final residual = 0.00361794, No Iterations 5
DILUPBiCGStab:  Solving for Uy, Initial residual = 0.243865, Final residual = 0.0133246, No Iterations 5
DILUPBiCGStab:  Solving for Uz, Initial residual = 0.723878, Final residual = 0.0337879, No Iterations 5
[INFO] MomentumPredictor: 16472.3 [ms]
[INFO] MatrixAssemblyPI: 2315.46 [ms]
[INFO] AdjustPhi: 406.1 [ms]
[INFO] ConstrainPressure: 0.002 [ms]
[INFO] MatrixAssemblyPII: 666.158 [ms]
nonePCG:  Solving for p, Initial residual = 0.976307, Final residual = 9.81776e-05, No Iterations 3073
[INFO] SolveP: 751937 [ms]
time step continuity errors : sum local = 3.91978e-08, global = 6.92169e-22, cumulative = 7.12928e-21
[INFO] ContinuityError: 411.746 [ms]
[INFO] CorrectBoundary: 166.715 [ms]
[INFO] PISOStep: 756702 [ms]
[INFO] MatrixAssemblyPI: 2204.06 [ms]
[INFO] AdjustPhi: 503.709 [ms]
[INFO] ConstrainPressure: 0.003 [ms]
[INFO] MatrixAssemblyPII: 666.145 [ms]
nonePCG:  Solving for p, Initial residual = 0.920398, Final residual = 9.88959e-05, No Iterations 3070
[INFO] SolveP: 751445 [ms]
time step continuity errors : sum local = 3.95878e-08, global = 7.98216e-22, cumulative = 7.92749e-21
[INFO] ContinuityError: 391.797 [ms]
[INFO] CorrectBoundary: 173.364 [ms]
[INFO] PISOStep: 756216 [ms]
[INFO] TimeStep: 1.53186e+06 [ms]
ExecutionTime = 18096.4 s  ClockTime = 18168 s

Time = 0.00175

Courant Number mean: 0.0387 max: 1.02168
[INFO] MatrixAssemblyU: 2085.73 [ms]
DILUPBiCGStab:  Solving for Ux, Initial residual = 0.0624207, Final residual = 0.00391357, No Iterations 5
DILUPBiCGStab:  Solving for Uy, Initial residual = 0.254655, Final residual = 0.0127704, No Iterations 5
DILUPBiCGStab:  Solving for Uz, Initial residual = 0.728617, Final residual = 0.0335359, No Iterations 5
[INFO] MomentumPredictor: 16343.2 [ms]
[INFO] MatrixAssemblyPI: 2379.88 [ms]
[INFO] AdjustPhi: 254.974 [ms]
[INFO] ConstrainPressure: 0.002 [ms]
[INFO] MatrixAssemblyPII: 665.567 [ms]
nonePCG:  Solving for p, Initial residual = 0.976948, Final residual = 9.9974e-05, No Iterations 3064
[INFO] SolveP: 749925 [ms]
time step continuity errors : sum local = 4.71503e-08, global = -3.78138e-22, cumulative = 7.54935e-21
[INFO] ContinuityError: 397.773 [ms]
[INFO] CorrectBoundary: 185.049 [ms]
[INFO] PISOStep: 754606 [ms]
[INFO] MatrixAssemblyPI: 2250.23 [ms]
[INFO] AdjustPhi: 430.636 [ms]
[INFO] ConstrainPressure: 0.003 [ms]
[INFO] MatrixAssemblyPII: 664.347 [ms]
nonePCG:  Solving for p, Initial residual = 0.912773, Final residual = 9.71695e-05, No Iterations 3069
[INFO] SolveP: 750017 [ms]
time step continuity errors : sum local = 4.63426e-08, global = 5.23877e-22, cumulative = 8.07323e-21
[INFO] ContinuityError: 454.793 [ms]
[INFO] CorrectBoundary: 172.631 [ms]
[INFO] PISOStep: 754793 [ms]
[INFO] TimeStep: 1.52816e+06 [ms]
ExecutionTime = 19618.5 s  ClockTime = 19696 s

Time = 0.001875

Courant Number mean: 0.0401896 max: 1.68532
[INFO] MatrixAssemblyU: 2079.58 [ms]
DILUPBiCGStab:  Solving for Ux, Initial residual = 0.0696083, Final residual = 0.00401298, No Iterations 5
DILUPBiCGStab:  Solving for Uy, Initial residual = 0.287391, Final residual = 0.0141276, No Iterations 5
DILUPBiCGStab:  Solving for Uz, Initial residual = 0.73784, Final residual = 0.0333713, No Iterations 5
[INFO] MomentumPredictor: 16354.1 [ms]
[INFO] MatrixAssemblyPI: 2366.09 [ms]
[INFO] AdjustPhi: 275.806 [ms]
[INFO] ConstrainPressure: 0.002 [ms]
[INFO] MatrixAssemblyPII: 657.067 [ms]
nonePCG:  Solving for p, Initial residual = 0.979122, Final residual = 9.91749e-05, No Iterations 3077
[INFO] SolveP: 757243 [ms]
time step continuity errors : sum local = 5.5283e-08, global = 5.57752e-22, cumulative = 8.63098e-21
[INFO] ContinuityError: 385.935 [ms]
[INFO] CorrectBoundary: 140.042 [ms]
[INFO] PISOStep: 761874 [ms]
[INFO] MatrixAssemblyPI: 2249.83 [ms]
[INFO] AdjustPhi: 481.926 [ms]
[INFO] ConstrainPressure: 0.003 [ms]
[INFO] MatrixAssemblyPII: 666.876 [ms]
nonePCG:  Solving for p, Initial residual = 0.920891, Final residual = 9.82997e-05, No Iterations 3073
[INFO] SolveP: 752624 [ms]
time step continuity errors : sum local = 5.50227e-08, global = 6.70197e-22, cumulative = 9.30118e-21
[INFO] ContinuityError: 392.681 [ms]
[INFO] CorrectBoundary: 172.221 [ms]
[INFO] PISOStep: 757404 [ms]
[INFO] TimeStep: 1.53804e+06 [ms]
ExecutionTime = 21150.4 s  ClockTime = 21234 s

Time = 0.002

Courant Number mean: 0.0411915 max: 1.72722
[INFO] MatrixAssemblyU: 2057.57 [ms]
DILUPBiCGStab:  Solving for Ux, Initial residual = 0.0814177, Final residual = 0.00442852, No Iterations 5
DILUPBiCGStab:  Solving for Uy, Initial residual = 0.304634, Final residual = 0.0140189, No Iterations 5
DILUPBiCGStab:  Solving for Uz, Initial residual = 0.741668, Final residual = 0.0331874, No Iterations 5
[INFO] MomentumPredictor: 16343.6 [ms]
[INFO] MatrixAssemblyPI: 2348.56 [ms]
[INFO] AdjustPhi: 278.481 [ms]
[INFO] ConstrainPressure: 0.002 [ms]
[INFO] MatrixAssemblyPII: 665.697 [ms]
nonePCG:  Solving for p, Initial residual = 0.980248, Final residual = 9.94011e-05, No Iterations 3078
[INFO] SolveP: 756044 [ms]
time step continuity errors : sum local = 6.57486e-08, global = 1.82667e-21, cumulative = 1.11279e-20
[INFO] ContinuityError: 390.817 [ms]
[INFO] CorrectBoundary: 184.913 [ms]
[INFO] PISOStep: 760727 [ms]
[INFO] MatrixAssemblyPI: 2269.03 [ms]
[INFO] AdjustPhi: 396.79 [ms]
[INFO] ConstrainPressure: 0.003 [ms]
[INFO] MatrixAssemblyPII: 666.204 [ms]
nonePCG:  Solving for p, Initial residual = 0.915846, Final residual = 9.99336e-05, No Iterations 3074
[INFO] SolveP: 753813 [ms]
time step continuity errors : sum local = 6.67888e-08, global = 5.78225e-22, cumulative = 1.17061e-20
[INFO] ContinuityError: 411.327 [ms]
[INFO] CorrectBoundary: 165.316 [ms]
[INFO] PISOStep: 758538 [ms]
[INFO] TimeStep: 1.53807e+06 [ms]
ExecutionTime = 22682.2 s  ClockTime = 22772 s

Time = 0.002125

Courant Number mean: 0.0427247 max: 2.56757
[INFO] MatrixAssemblyU: 2080.79 [ms]
DILUPBiCGStab:  Solving for Ux, Initial residual = 0.0917274, Final residual = 0.0046958, No Iterations 5
DILUPBiCGStab:  Solving for Uy, Initial residual = 0.340432, Final residual = 0.0154409, No Iterations 5
DILUPBiCGStab:  Solving for Uz, Initial residual = 0.747702, Final residual = 0.033097, No Iterations 5
[INFO] MomentumPredictor: 16364.6 [ms]
[INFO] MatrixAssemblyPI: 2336.64 [ms]
[INFO] AdjustPhi: 255.583 [ms]
[INFO] ConstrainPressure: 0.003 [ms]
[INFO] MatrixAssemblyPII: 665.878 [ms]
nonePCG:  Solving for p, Initial residual = 0.981294, Final residual = 9.96132e-05, No Iterations 3078
[INFO] SolveP: 756356 [ms]
time step continuity errors : sum local = 7.85161e-08, global = -3.02381e-21, cumulative = 8.68227e-21
[INFO] ContinuityError: 388.128 [ms]
[INFO] CorrectBoundary: 166.474 [ms]
[INFO] PISOStep: 760984 [ms]
[INFO] MatrixAssemblyPI: 2052.2 [ms]
[INFO] AdjustPhi: 589.455 [ms]
[INFO] ConstrainPressure: 0.002 [ms]
[INFO] MatrixAssemblyPII: 659.102 [ms]
nonePCG:  Solving for p, Initial residual = 0.920888, Final residual = 9.97351e-05, No Iterations 3075
[INFO] SolveP: 754127 [ms]
time step continuity errors : sum local = 7.90511e-08, global = 7.85977e-22, cumulative = 9.46824e-21
[INFO] ContinuityError: 407.004 [ms]
[INFO] CorrectBoundary: 152.152 [ms]
[INFO] PISOStep: 758802 [ms]
[INFO] TimeStep: 1.53856e+06 [ms]
ExecutionTime = 24214.6 s  ClockTime = 24311 s

Time = 0.00225

Courant Number mean: 0.0437438 max: 2.88681
[INFO] MatrixAssemblyU: 2078.81 [ms]
DILUPBiCGStab:  Solving for Ux, Initial residual = 0.108703, Final residual = 0.00530252, No Iterations 5
DILUPBiCGStab:  Solving for Uy, Initial residual = 0.363957, Final residual = 0.0157179, No Iterations 5
DILUPBiCGStab:  Solving for Uz, Initial residual = 0.750307, Final residual = 0.0328714, No Iterations 5
[INFO] MomentumPredictor: 16309.3 [ms]
[INFO] MatrixAssemblyPI: 2382.43 [ms]
[INFO] AdjustPhi: 240.286 [ms]
[INFO] ConstrainPressure: 0.002 [ms]
[INFO] MatrixAssemblyPII: 666.907 [ms]
nonePCG:  Solving for p, Initial residual = 0.982541, Final residual = 9.81994e-05, No Iterations 3082
[INFO] SolveP: 756840 [ms]
time step continuity errors : sum local = 9.25871e-08, global = 3.89447e-22, cumulative = 9.85769e-21
[INFO] ContinuityError: 393.516 [ms]
[INFO] CorrectBoundary: 176.359 [ms]
[INFO] PISOStep: 761501 [ms]
[INFO] MatrixAssemblyPI: 2102.82 [ms]
[INFO] AdjustPhi: 514.825 [ms]
[INFO] ConstrainPressure: 0.004 [ms]
[INFO] MatrixAssemblyPII: 666.47 [ms]
nonePCG:  Solving for p, Initial residual = 0.91797, Final residual = 9.95705e-05, No Iterations 3077
[INFO] SolveP: 750640 [ms]
time step continuity errors : sum local = 9.48064e-08, global = 1.25021e-21, cumulative = 1.11079e-20
[INFO] ContinuityError: 446.533 [ms]
[INFO] CorrectBoundary: 159.394 [ms]
[INFO] PISOStep: 755322 [ms]
[INFO] TimeStep: 1.53553e+06 [ms]
ExecutionTime = 25744.2 s  ClockTime = 25846 s

Time = 0.002375

Courant Number mean: 0.045408 max: 4.00916
[INFO] MatrixAssemblyU: 2018.3 [ms]
DILUPBiCGStab:  Solving for Ux, Initial residual = 0.123025, Final residual = 0.00575542, No Iterations 5
DILUPBiCGStab:  Solving for Uy, Initial residual = 0.40101, Final residual = 0.0171829, No Iterations 5
DILUPBiCGStab:  Solving for Uz, Initial residual = 0.754079, Final residual = 0.0328346, No Iterations 5
[INFO] MomentumPredictor: 16352.8 [ms]
[INFO] MatrixAssemblyPI: 2323.57 [ms]
[INFO] AdjustPhi: 322.692 [ms]
[INFO] ConstrainPressure: 0.003 [ms]
[INFO] MatrixAssemblyPII: 658.744 [ms]
nonePCG:  Solving for p, Initial residual = 0.982978, Final residual = 9.8232e-05, No Iterations 3083
[INFO] SolveP: 756337 [ms]
time step continuity errors : sum local = 1.11246e-07, global = -1.17599e-21, cumulative = 9.93191e-21
[INFO] ContinuityError: 374.848 [ms]
[INFO] CorrectBoundary: 129.076 [ms]
[INFO] PISOStep: 760955 [ms]
[INFO] MatrixAssemblyPI: 2192.61 [ms]
[INFO] AdjustPhi: 462.073 [ms]
[INFO] ConstrainPressure: 0.003 [ms]
[INFO] MatrixAssemblyPII: 666.619 [ms]
nonePCG:  Solving for p, Initial residual = 0.921155, Final residual = 9.98045e-05, No Iterations 3079
[INFO] SolveP: 751669 [ms]
time step continuity errors : sum local = 1.13783e-07, global = 1.15237e-21, cumulative = 1.10843e-20
[INFO] ContinuityError: 425.392 [ms]
[INFO] CorrectBoundary: 162.134 [ms]
[INFO] PISOStep: 756383 [ms]
[INFO] TimeStep: 1.53602e+06 [ms]
ExecutionTime = 27274.2 s  ClockTime = 27382 s

Time = 0.0025

Courant Number mean: 0.0465596 max: 4.77646
[INFO] MatrixAssemblyU: 1995.9 [ms]
DILUPBiCGStab:  Solving for Ux, Initial residual = 0.146967, Final residual = 0.00663494, No Iterations 5
DILUPBiCGStab:  Solving for Uy, Initial residual = 0.429084, Final residual = 0.0177681, No Iterations 5
DILUPBiCGStab:  Solving for Uz, Initial residual = 0.755586, Final residual = 0.032621, No Iterations 5
[INFO] MomentumPredictor: 16169.1 [ms]
[INFO] MatrixAssemblyPI: 2229.68 [ms]
[INFO] AdjustPhi: 533.155 [ms]
[INFO] ConstrainPressure: 0.002 [ms]
[INFO] MatrixAssemblyPII: 666.572 [ms]
nonePCG:  Solving for p, Initial residual = 0.983896, Final residual = 9.89729e-05, No Iterations 3084
[INFO] SolveP: 759364 [ms]
time step continuity errors : sum local = 1.35036e-07, global = 1.91663e-21, cumulative = 1.30009e-20
[INFO] ContinuityError: 367.823 [ms]
[INFO] CorrectBoundary: 135.833 [ms]
[INFO] PISOStep: 764094 [ms]
[INFO] MatrixAssemblyPI: 2207.59 [ms]
[INFO] AdjustPhi: 444.291 [ms]
[INFO] ConstrainPressure: 0.004 [ms]
[INFO] MatrixAssemblyPII: 666.134 [ms]
nonePCG:  Solving for p, Initial residual = 0.919315, Final residual = 9.76907e-05, No Iterations 3081
[INFO] SolveP: 758132 [ms]
time step continuity errors : sum local = 1.34572e-07, global = 3.73782e-22, cumulative = 1.33747e-20
[INFO] ContinuityError: 384.496 [ms]
[INFO] CorrectBoundary: 168.985 [ms]
[INFO] PISOStep: 762811 [ms]
[INFO] TimeStep: 1.54538e+06 [ms]
ExecutionTime = 28813.7 s  ClockTime = 28928 s

End

Finalising parallel run
