/*---------------------------------------------------------------------------*\
| =========                 |                                                 |
| \\      /  F ield         | OpenFOAM: The Open Source CFD Toolbox           |
|  \\    /   O peration     | Version:  2306                                  |
|   \\  /    A nd           | Website:  www.openfoam.com                      |
|    \\/     M anipulation  |                                                 |
\*---------------------------------------------------------------------------*/
Build  : c423ebec-20231012 OPENFOAM=2306 version=v2306
Arch   : "LSB;label=32;scalar=64"
Exec   : simpleFoam -parallel -case /hkfs/work/workspace/scratch/eq4036-windsorbody_setup/workspace/5775f8041e77bcf9ea8c7909f8260015/case
Date   : Feb 16 2024
Time   : 20:32:36
Host   : hkn0704.localdomain
PID    : 396016
I/O    : uncollated
Case   : /hkfs/work/workspace/scratch/eq4036-windsorbody_setup/workspace/5775f8041e77bcf9ea8c7909f8260015/case
nProcs : 16
Hosts  :
(
    (hkn0704.localdomain 8)
    (hkn0707.localdomain 8)
)
Pstream initialized with:
    floatTransfer      : false
    nProcsSimpleSum    : 0
    nonBlockingExchange: 0 (tuning: 0)
    exchange algorithm : -1
    commsType          : nonBlocking
    polling iterations : 0
trapFpe: Floating point exception trapping enabled (FOAM_SIGFPE).
fileModificationChecking : Monitoring run-time modified files using timeStampMaster (fileModificationSkew 5, maxFileModificationPolls 20)
allowSystemOperations : Allowing user-supplied system call operations

// * * * * * * * * * * * * * * * * * * * * * * * * * * * * * * * * * * * * * //
Create time

--> FOAM Warning : 
    From void* Foam::dlLibraryTable::openLibrary(const Foam::fileName&, bool)
    in file db/dynamicLibrary/dlLibraryTable/dlLibraryTable.C at line 188
    Could not load "libpetscFoam.so"
libpetscFoam.so: cannot open shared object file: No such file or directory
Create mesh for time = 0


SIMPLE: convergence criteria
    field p	 tolerance 1e-08
    field U	 tolerance 1e-08
    field k	 tolerance 1e-08
    field omega	 tolerance 1e-08
    field nuTilda	 tolerance 1e-08

Reading field p

Reading field U

Reading/calculating face flux field phi

Selecting incompressible transport model Newtonian
Selecting turbulence model type RAS
Selecting RAS turbulence model SpalartAllmaras
Selecting patchDistMethod meshWave
ft2 term: inactive
RAS
{
    RASModel        SpalartAllmaras;
    turbulence      on;
    printCoeffs     on;
    sigmaNut        0.66666;
    kappa           0.41;
    Cb1             0.1355;
    Cb2             0.622;
    Cw2             0.3;
    Cw3             2;
    Cv1             7.1;
    Cs              0.3;
    ck              0.07000000000000001;
    ft2             false;
    Ct3             1.2;
    Ct4             0.5;
}

No MRF models present

Creating finite volume options from "system/fvOptions"

Selecting finite volume options type velocityDampingConstraint
    Source: velocityDamping
    - selecting all cells
    - selected 25228544 cell(s) with volume 111.3033220641269

Starting time loop

--> FOAM Warning : 
    From bool Foam::functionObjectList::read()
    in file db/functionObjects/functionObjectList/functionObjectList.C at line 1035
    Reading "system/controlDict" at line 2 to 41
    Entry 'lref' is not a dictionary
--> FOAM Warning : 
    From bool Foam::functionObjectList::read()
    in file db/functionObjects/functionObjectList/functionObjectList.C at line 1035
    Reading "system/controlDict" at line 2 to 41
    Entry 'Aref' is not a dictionary
--> FOAM Warning : 
    From bool Foam::functionObjectList::read()
    in file db/functionObjects/functionObjectList/functionObjectList.C at line 1035
    Reading "system/controlDict" at line 2 to 41
    Entry 'yawAngle' is not a dictionary
--> FOAM Warning : 
    From bool Foam::functionObjectList::read()
    in file db/functionObjects/functionObjectList/functionObjectList.C at line 1035
    Reading "system/controlDict" at line 2 to 41
    Entry 'lDomain' is not a dictionary
--> FOAM Warning : 
    From bool Foam::functionObjectList::read()
    in file db/functionObjects/functionObjectList/functionObjectList.C at line 1035
    Reading "system/controlDict" at line 2 to 41
    Entry 'bDomain' is not a dictionary
--> FOAM Warning : 
    From bool Foam::functionObjectList::read()
    in file db/functionObjects/functionObjectList/functionObjectList.C at line 1035
    Reading "system/controlDict" at line 2 to 41
    Entry 'hDomain' is not a dictionary
--> FOAM Warning : 
    From bool Foam::functionObjectList::read()
    in file db/functionObjects/functionObjectList/functionObjectList.C at line 1035
    Reading "system/controlDict" at line 2 to 41
    Entry 'xCenter' is not a dictionary
--> FOAM Warning : 
    From bool Foam::functionObjectList::read()
    in file db/functionObjects/functionObjectList/functionObjectList.C at line 1035
    Reading "system/controlDict" at line 2 to 41
    Entry 'yCenter' is not a dictionary
--> FOAM Warning : 
    From bool Foam::functionObjectList::read()
    in file db/functionObjects/functionObjectList/functionObjectList.C at line 1035
    Reading "system/controlDict" at line 2 to 41
    Entry 'zCenter' is not a dictionary
--> FOAM Warning : 
    From bool Foam::functionObjectList::read()
    in file db/functionObjects/functionObjectList/functionObjectList.C at line 1035
    Reading "system/controlDict" at line 2 to 41
    Entry 'inletPatch' is not a dictionary
--> FOAM Warning : 
    From bool Foam::functionObjectList::read()
    in file db/functionObjects/functionObjectList/functionObjectList.C at line 1035
    Reading "system/controlDict" at line 2 to 41
    Entry 'outletPatch' is not a dictionary
--> FOAM Warning : 
    From bool Foam::functionObjectList::read()
    in file db/functionObjects/functionObjectList/functionObjectList.C at line 1035
    Reading "system/controlDict" at line 2 to 41
    Entry 'wallPatches' is not a dictionary
--> FOAM Warning : 
    From bool Foam::functionObjectList::read()
    in file db/functionObjects/functionObjectList/functionObjectList.C at line 1035
    Reading "system/controlDict" at line 2 to 41
    Entry 'forcesWallPatches' is not a dictionary
--> FOAM Warning : 
    From bool Foam::functionObjectList::read()
    in file db/functionObjects/functionObjectList/functionObjectList.C at line 1035
    Reading "system/controlDict" at line 2 to 41
    Entry 'symmPatches' is not a dictionary
--> FOAM Warning : 
    From bool Foam::functionObjectList::read()
    in file db/functionObjects/functionObjectList/functionObjectList.C at line 1035
    Reading "system/controlDict" at line 2 to 41
    Entry 'Uinf' is not a dictionary
--> FOAM Warning : 
    From bool Foam::functionObjectList::read()
    in file db/functionObjects/functionObjectList/functionObjectList.C at line 1035
    Reading "system/controlDict" at line 2 to 41
    Entry 'UinfMag' is not a dictionary
--> FOAM Warning : 
    From bool Foam::functionObjectList::read()
    in file db/functionObjects/functionObjectList/functionObjectList.C at line 1035
    Reading "system/controlDict" at line 2 to 41
    Entry 'nu' is not a dictionary
--> FOAM Warning : 
    From bool Foam::functionObjectList::read()
    in file db/functionObjects/functionObjectList/functionObjectList.C at line 1035
    Reading "system/controlDict" at line 2 to 41
    Entry 'pref' is not a dictionary
--> FOAM Warning : 
    From bool Foam::functionObjectList::read()
    in file db/functionObjects/functionObjectList/functionObjectList.C at line 1035
    Reading "system/controlDict" at line 2 to 41
    Entry 'viscRatio' is not a dictionary
--> FOAM Warning : 
    From bool Foam::functionObjectList::read()
    in file db/functionObjects/functionObjectList/functionObjectList.C at line 1035
    Reading "system/controlDict" at line 2 to 41
    Entry 'Tu' is not a dictionary
--> FOAM Warning : 
    From bool Foam::functionObjectList::read()
    in file db/functionObjects/functionObjectList/functionObjectList.C at line 1035
    Reading "system/controlDict" at line 2 to 41
    Entry 'LESturbModel' is not a dictionary
--> FOAM Warning : 
    From bool Foam::functionObjectList::read()
    in file db/functionObjects/functionObjectList/functionObjectList.C at line 1035
    Reading "system/controlDict" at line 2 to 41
    Entry 'RASturbModel' is not a dictionary
--> FOAM Warning : 
    From bool Foam::functionObjectList::read()
    in file db/functionObjects/functionObjectList/functionObjectList.C at line 1035
    Reading "system/controlDict" at line 2 to 41
    Entry 'deltaTurb' is not a dictionary
--> FOAM Warning : 
    From bool Foam::functionObjectList::read()
    in file db/functionObjects/functionObjectList/functionObjectList.C at line 1035
    Reading "system/controlDict" at line 2 to 41
    Entry 'dt' is not a dictionary
--> FOAM Warning : 
    From bool Foam::functionObjectList::read()
    in file db/functionObjects/functionObjectList/functionObjectList.C at line 1035
    Reading "system/controlDict" at line 2 to 41
    Entry 'tAvg' is not a dictionary
--> FOAM Warning : 
    From bool Foam::functionObjectList::read()
    in file db/functionObjects/functionObjectList/functionObjectList.C at line 1035
    Reading "system/controlDict" at line 2 to 41
    Entry 'tEnd' is not a dictionary
--> FOAM Warning : 
    From bool Foam::functionObjectList::read()
    in file db/functionObjects/functionObjectList/functionObjectList.C at line 1035
    Reading "system/controlDict" at line 2 to 41
    Entry 'writeInterval_' is not a dictionary
--> FOAM Warning : 
    From bool Foam::functionObjectList::read()
    in file db/functionObjects/functionObjectList/functionObjectList.C at line 1035
    Reading "system/controlDict" at line 2 to 41
    Entry 'nCores' is not a dictionary
--> FOAM Warning : 
    From bool Foam::functionObjectList::read()
    in file db/functionObjects/functionObjectList/functionObjectList.C at line 1035
    Reading "system/controlDict" at line 2 to 41
    Entry 'interpScheme' is not a dictionary
--> FOAM Warning : 
    From bool Foam::functionObjectList::read()
    in file db/functionObjects/functionObjectList/functionObjectList.C at line 1035
    Reading "system/controlDict" at line 2 to 41
    Entry 'probeField' is not a dictionary
wallShearStress wallShearStress:
    processing wall patches: 
        Windsor_Body
        CFDWT_Floor
        Windsor_Pins
        Windsor_Base
        Windsor_Body_2
        CFDWT_Floor_2
        Windsor_Pins_2
        Windsor_Base_2
        Windsor_Body_3
        CFDWT_Floor_3
        Windsor_Pins_3
        Windsor_Base_3
        Windsor_Body_4
        CFDWT_Floor_4
        Windsor_Pins_4
        Windsor_Base_4

pressure calc_cp:
    Operating mode: staticCoeff
    Not including hydrostatic effects

forceCoeffs forceCoeffsAll:
    rho: rhoInf
    Freestream density (rhoInf) set to 1
    Not including porosity effects
    magUInf: 40
    lRef   : 0.6375
    Aref   : 0.1124
    rhoInf : 1
    Selecting all coefficients
    - Drag force: Cd
    - Drag force front: Cd(f)
    - Drag force rear: Cd(r)
    - Lift force: Cl
    - Lift force front: Cl(f)
    - Lift force rear: Cl(r)
    - Pitch moment: CmPitch
    - Roll moment: CmRoll
    - Yaw moment: CmYaw
    - Side force: Cs
    - Side force front: Cs(f)
    - Side force rear: Cs(r)


forceCoeffs dragCoeffBase:
    rho: rhoInf
    Freestream density (rhoInf) set to 1
    Not including porosity effects
    magUInf: 40
    lRef   : 0.6375
    Aref   : 0.1124
    rhoInf : 1
    Selecting coefficients:
    - Drag force: Cd


Time = 1

velocityDampingConstraint velocityDamping damped 0 (0%) of cells, with max limit 300
[OGL LOG][lduLduBase.H:119] Initialising OGL
	OGL commit:  e75313f+
	Branch: dev 
	Build type: Debug
	Ginkgo version: 1.8.0 ( develop)
	Ginkgo commit: sparse-communicator
	MPI is GPU aware: 1
	Forces host buffer based communication: 0
	CPU ranks per GPU: 1
	Matrix format: Coo
	End OGL_INFO
[OGL LOG][Proc: 0]: global_index_init: 0.9320000000000001 [ms]
[OGL LOG][Proc: 0]Ux_local_cols: call_init: 0.778 [ms]
[OGL LOG][Proc: 0]Ux_local_rows: call_init: 0.379 [ms]
[OGL LOG][Proc: 0]Ux_local_ldu_map: call_init: 0.487 [ms]
[OGL LOG][Proc: 0]Ux_local_coeffs: call_init: 4.561 [ms]
[OGL LOG][Proc: 0]Ux_non_local_cols: call_init: 0.018 [ms]
[OGL LOG][Proc: 0]Ux_non_local_rows: call_init: 0.007 [ms]
[OGL LOG][Proc: 0]Ux_non_local_ldu_map: call_init: 0.023 [ms]
[OGL LOG][Proc: 0]Ux_non_local_coeffs: call_init: 0.183 [ms]
[OGL LOG][Proc: 0]Ux: init_local_sparsity_pattern: 76055.182 [ms]
[OGL LOG][Proc: 0]Ux: init_non_local_sparsity_pattern: 816.954 [ms]
[OGL LOG][Proc: 0]Ux: update_local_matrix_data: 122.679 [ms]
[OGL LOG][Proc: 0]Ux: update_non_local_matrix_data: 1.24 [ms]
[OGL LOG][Proc: 0]device_partition: call_init: 0.245 [ms]
[OGL LOG][Proc: 0]Ux_matrix: call_init: 176.956 [ms]
[OGL LOG][Proc: 0]Ux_rhs: call_init: 4.446 [ms]
[OGL LOG][Proc: 0]Ux_solution: call_init: 3.475 [ms]
[OGL LOG][Preconditioner.H:121] Generate preconditioner BJ MaxBlockSize 1
[OGL LOG][Proc: 0]Ux: init_precond: 16.833 [ms]
[OGL LOG][StoppingCriterion.H:239] Creating stopping criterion with minIter 0 frequency 1
[OGL LOG][Proc: 0]Ux: generate_solver: 0.315 [ms]
[OGL LOG][Proc: 0]Ux: solve: 213.672 [ms]
[OGL LOG][Proc: 0]Ux: copy_x_back: 5.99 [ms]
[OGL LOG][lduLduBase.H:330] 
Statistics:
	Time per iteration: 30524 [mu s]
	Time per residual norm calculation: 5323.000000 [mu s]
	Time per iteration and DOF: 1.209899 [ns]
	Retrieve results bandwidth 2.525000 [GByte/s]
[OGL LOG][Proc: 0]Ux: solve_multi_gpu: 438.448 [ms]
BJcudaGKOBiCGStab:  Solving for Ux, Initial residual = 0.9999999999999383, Final residual = 0.0456848587911078, No Iterations 7
[OGL LOG][lduLduBase.H:119] Initialising OGL
	OGL commit:  e75313f+
	Branch: dev 
	Build type: Debug
	Ginkgo version: 1.8.0 ( develop)
	Ginkgo commit: sparse-communicator
	MPI is GPU aware: 1
	Forces host buffer based communication: 0
	CPU ranks per GPU: 1
	Matrix format: Coo
	End OGL_INFO
[OGL LOG][Proc: 0]: global_index_init: 0.251 [ms]
[OGL LOG][Proc: 0]Uy_local_cols: call_init: 0.046 [ms]
[OGL LOG][Proc: 0]Uy_local_rows: call_init: 0.008 [ms]
[OGL LOG][Proc: 0]Uy_local_ldu_map: call_init: 0.008 [ms]
[OGL LOG][Proc: 0]Uy_local_coeffs: call_init: 0.91 [ms]
[OGL LOG][Proc: 0]Uy_non_local_cols: call_init: 0.028 [ms]
[OGL LOG][Proc: 0]Uy_non_local_rows: call_init: 0.021 [ms]
[OGL LOG][Proc: 0]Uy_non_local_ldu_map: call_init: 0.014 [ms]
[OGL LOG][Proc: 0]Uy_non_local_coeffs: call_init: 0.022 [ms]
[OGL LOG][Proc: 0]Uy: init_local_sparsity_pattern: 76035.558 [ms]
[OGL LOG][Proc: 0]Uy: init_non_local_sparsity_pattern: 838.177 [ms]
[OGL LOG][Proc: 0]Uy: update_local_matrix_data: 90.904 [ms]
[OGL LOG][Proc: 0]Uy: update_non_local_matrix_data: 1.215 [ms]
[OGL LOG][Proc: 0]Uy_matrix: call_init: 181.165 [ms]
[OGL LOG][Proc: 0]Uy_rhs: call_init: 6.919 [ms]
[OGL LOG][Proc: 0]Uy_solution: call_init: 6.156 [ms]
[OGL LOG][Preconditioner.H:121] Generate preconditioner BJ MaxBlockSize 1
[OGL LOG][Proc: 0]Uy: init_precond: 1.627 [ms]
[OGL LOG][StoppingCriterion.H:239] Creating stopping criterion with minIter 0 frequency 1
[OGL LOG][Proc: 0]Uy: generate_solver: 0.023 [ms]
[OGL LOG][Proc: 0]Uy: solve: 226.691 [ms]
[OGL LOG][Proc: 0]Uy: copy_x_back: 5.553 [ms]
[OGL LOG][lduLduBase.H:330] 
Statistics:
	Time per iteration: 22669 [mu s]
	Time per residual norm calculation: 1249.000000 [mu s]
	Time per iteration and DOF: 0.898546 [ns]
	Retrieve results bandwidth 2.724000 [GByte/s]
[OGL LOG][Proc: 0]Uy: solve_multi_gpu: 441.448 [ms]
BJcudaGKOBiCGStab:  Solving for Uy, Initial residual = 1.00000000000002, Final residual = 0.07725065439756004, No Iterations 10
[OGL LOG][lduLduBase.H:119] Initialising OGL
	OGL commit:  e75313f+
	Branch: dev 
	Build type: Debug
	Ginkgo version: 1.8.0 ( develop)
	Ginkgo commit: sparse-communicator
	MPI is GPU aware: 1
	Forces host buffer based communication: 0
	CPU ranks per GPU: 1
	Matrix format: Coo
	End OGL_INFO
[OGL LOG][Proc: 0]: global_index_init: 2.461 [ms]
[OGL LOG][Proc: 0]Uz_local_cols: call_init: 0.048 [ms]
[OGL LOG][Proc: 0]Uz_local_rows: call_init: 0.029 [ms]
[OGL LOG][Proc: 0]Uz_local_ldu_map: call_init: 0.02 [ms]
[OGL LOG][Proc: 0]Uz_local_coeffs: call_init: 0.961 [ms]
[OGL LOG][Proc: 0]Uz_non_local_cols: call_init: 0.013 [ms]
[OGL LOG][Proc: 0]Uz_non_local_rows: call_init: 0.004 [ms]
[OGL LOG][Proc: 0]Uz_non_local_ldu_map: call_init: 0.003 [ms]
[OGL LOG][Proc: 0]Uz_non_local_coeffs: call_init: 0.008 [ms]
[OGL LOG][Proc: 0]Uz: init_local_sparsity_pattern: 76052.66899999999 [ms]
[OGL LOG][Proc: 0]Uz: init_non_local_sparsity_pattern: 831.888 [ms]
[OGL LOG][Proc: 0]Uz: update_local_matrix_data: 90.876 [ms]
[OGL LOG][Proc: 0]Uz: update_non_local_matrix_data: 1.15 [ms]
[OGL LOG][Proc: 0]Uz_matrix: call_init: 176.311 [ms]
[OGL LOG][Proc: 0]Uz_rhs: call_init: 7.199 [ms]
[OGL LOG][Proc: 0]Uz_solution: call_init: 5.918 [ms]
[OGL LOG][Preconditioner.H:121] Generate preconditioner BJ MaxBlockSize 1
[OGL LOG][Proc: 0]Uz: init_precond: 1.636 [ms]
[OGL LOG][StoppingCriterion.H:239] Creating stopping criterion with minIter 0 frequency 1
[OGL LOG][Proc: 0]Uz: generate_solver: 0.023 [ms]
[OGL LOG][Proc: 0]Uz: solve: 111.652 [ms]
[OGL LOG][Proc: 0]Uz: copy_x_back: 5.506 [ms]
[OGL LOG][lduLduBase.H:330] 
Statistics:
	Time per iteration: 111652 [mu s]
	Time per residual norm calculation: 1687.000000 [mu s]
	Time per iteration and DOF: 4.425622 [ns]
	Retrieve results bandwidth 2.747000 [GByte/s]
[OGL LOG][Proc: 0]Uz: solve_multi_gpu: 323.888 [ms]
BJcudaGKOBiCGStab:  Solving for Uz, Initial residual = 1.000000000000023, Final residual = 0.07317246117889867, No Iterations 1
[OGL LOG][lduLduBase.H:119] Initialising OGL
	OGL commit:  e75313f+
	Branch: dev 
	Build type: Debug
	Ginkgo version: 1.8.0 ( develop)
	Ginkgo commit: sparse-communicator
	MPI is GPU aware: 1
	Forces host buffer based communication: 0
	CPU ranks per GPU: 1
	Matrix format: Coo
	End OGL_INFO
[OGL LOG][Proc: 0]: global_index_init: 0.023 [ms]
[OGL LOG][Proc: 0]p_local_cols: call_init: 0.045 [ms]
[OGL LOG][Proc: 0]p_local_rows: call_init: 0.008 [ms]
[OGL LOG][Proc: 0]p_local_ldu_map: call_init: 0.008 [ms]
[OGL LOG][Proc: 0]p_local_coeffs: call_init: 0.988 [ms]
[OGL LOG][Proc: 0]p_non_local_cols: call_init: 0.016 [ms]
[OGL LOG][Proc: 0]p_non_local_rows: call_init: 0.004 [ms]
[OGL LOG][Proc: 0]p_non_local_ldu_map: call_init: 0.004 [ms]
[OGL LOG][Proc: 0]p_non_local_coeffs: call_init: 0.008 [ms]
[OGL LOG][Proc: 0]p: init_local_sparsity_pattern: 75880.621 [ms]
[OGL LOG][Proc: 0]p: init_non_local_sparsity_pattern: 408.92 [ms]
[OGL LOG][Proc: 0]p: update_local_matrix_data: 67.44799999999999 [ms]
[OGL LOG][Proc: 0]p: update_non_local_matrix_data: 1.193 [ms]
[OGL LOG][Proc: 0]p_matrix: call_init: 178.368 [ms]
[OGL LOG][Proc: 0]p_rhs: call_init: 10.327 [ms]
[OGL LOG][Proc: 0]p_solution: call_init: 3.587 [ms]
[OGL LOG][Preconditioner.H:121] Generate preconditioner BJ MaxBlockSize 1
[OGL LOG][Proc: 0]p: init_precond: 1.677 [ms]
[OGL LOG][StoppingCriterion.H:239] Creating stopping criterion with minIter 0 frequency 1
[OGL LOG][Proc: 0]p: generate_solver: 0.197 [ms]
[OGL LOG][Proc: 0]p: solve: 7529.522 [ms]
[OGL LOG][Proc: 0]p: copy_x_back: 6.232 [ms]
[OGL LOG][lduLduBase.H:330] 
Statistics:
	Time per iteration: 6290 [mu s]
	Time per residual norm calculation: 1294.000000 [mu s]
	Time per iteration and DOF: 0.249321 [ns]
	Retrieve results bandwidth 2.427000 [GByte/s]
[OGL LOG][Proc: 0]p: solve_multi_gpu: 7750.191 [ms]
BJcudaGKOCG:  Solving for p, Initial residual = 1.000000000000432, Final residual = 0.009870898764894635, No Iterations 1197
time step continuity errors : sum local = 0.003576495933196401, global = 7.317544874878548e-05, cumulative = 7.317544874878548e-05
[OGL LOG][lduLduBase.H:119] Initialising OGL
	OGL commit:  e75313f+
	Branch: dev 
	Build type: Debug
	Ginkgo version: 1.8.0 ( develop)
	Ginkgo commit: sparse-communicator
	MPI is GPU aware: 1
	Forces host buffer based communication: 0
	CPU ranks per GPU: 1
	Matrix format: Coo
	End OGL_INFO
[OGL LOG][Proc: 0]: global_index_init: 0.027 [ms]
[OGL LOG][Proc: 0]nuTilda_local_cols: call_init: 0.056 [ms]
[OGL LOG][Proc: 0]nuTilda_local_rows: call_init: 0.031 [ms]
[OGL LOG][Proc: 0]nuTilda_local_ldu_map: call_init: 0.008999999999999999 [ms]
[OGL LOG][Proc: 0]nuTilda_local_coeffs: call_init: 1.015 [ms]
[OGL LOG][Proc: 0]nuTilda_non_local_cols: call_init: 0.014 [ms]
[OGL LOG][Proc: 0]nuTilda_non_local_rows: call_init: 0.005 [ms]
[OGL LOG][Proc: 0]nuTilda_non_local_ldu_map: call_init: 0.004 [ms]
[OGL LOG][Proc: 0]nuTilda_non_local_coeffs: call_init: 0.01 [ms]
[OGL LOG][Proc: 0]nuTilda: init_local_sparsity_pattern: 76075.00999999999 [ms]
[OGL LOG][Proc: 0]nuTilda: init_non_local_sparsity_pattern: 235.497 [ms]
[OGL LOG][Proc: 0]nuTilda: update_local_matrix_data: 86.392 [ms]
[OGL LOG][Proc: 0]nuTilda: update_non_local_matrix_data: 1.272 [ms]
[OGL LOG][Proc: 0]nuTilda_matrix: call_init: 183.647 [ms]
[OGL LOG][Proc: 0]nuTilda_rhs: call_init: 4.992 [ms]
[OGL LOG][Proc: 0]nuTilda_solution: call_init: 2.809 [ms]
[OGL LOG][Preconditioner.H:121] Generate preconditioner BJ MaxBlockSize 1
[OGL LOG][Proc: 0]nuTilda: init_precond: 1.708 [ms]
[OGL LOG][StoppingCriterion.H:239] Creating stopping criterion with minIter 0 frequency 1
[OGL LOG][Proc: 0]nuTilda: generate_solver: 0.024 [ms]
[OGL LOG][Proc: 0]nuTilda: solve: 133.034 [ms]
[OGL LOG][Proc: 0]nuTilda: copy_x_back: 5.285 [ms]
[OGL LOG][lduLduBase.H:330] 
Statistics:
	Time per iteration: 44344 [mu s]
	Time per residual norm calculation: 1882.000000 [mu s]
	Time per iteration and DOF: 1.757692 [ns]
	Retrieve results bandwidth 2.862000 [GByte/s]
[OGL LOG][Proc: 0]nuTilda: solve_multi_gpu: 364.291 [ms]
BJcudaGKOBiCGStab:  Solving for nuTilda, Initial residual = 0.9999999926275676, Final residual = 0.03403397706651577, No Iterations 3
bounding nuTilda, min: -0.0003621940018921694 max: 0.001581970408750183 average: 7.141581681043784e-05
ExecutionTime = 419.37 s  ClockTime = 422 s

--> FOAM Warning : 
    From virtual bool Foam::functionObjects::fieldSelection::checkSelection()
    in file functionObjects/fieldSelections/fieldSelection/fieldSelection.C at line 166
    Field k not found
--> FOAM Warning : 
    From virtual bool Foam::functionObjects::fieldSelection::checkSelection()
    in file functionObjects/fieldSelections/fieldSelection/fieldSelection.C at line 166
    Field gammaInt not found
--> FOAM Warning : 
    From virtual bool Foam::functionObjects::fieldSelection::checkSelection()
    in file functionObjects/fieldSelections/fieldSelection/fieldSelection.C at line 166
    Field omega not found
--> FOAM Warning : 
    From virtual bool Foam::functionObjects::fieldSelection::checkSelection()
    in file functionObjects/fieldSelections/fieldSelection/fieldSelection.C at line 166
    Field ReThetat not found
--> FOAM Warning : 
    From virtual bool Foam::functionObjects::fieldSelection::checkSelection()
    in file functionObjects/fieldSelections/fieldSelection/fieldSelection.C at line 166
    Field epsilon not found
--> FOAM Warning : 
    From virtual bool Foam::functionObjects::solverFieldSelection::updateSelection()
    in file functionObjects/fieldSelections/solverFieldSelection/solverFieldSelection.C at line 85
    Valid solver fields are: 3(U nuTilda p)Time = 2

velocityDampingConstraint velocityDamping damped 0 (0%) of cells, with max limit 300
[OGL LOG][Proc: 0]: global_index_init: 0.113 [ms]
[OGL LOG][Proc: 0]Ux_local_coeffs: call_update: 0.001 [ms]
[OGL LOG][Proc: 0]Ux_non_local_coeffs: call_update: 0 [ms]
[OGL LOG][Proc: 0]Ux: update_local_matrix_data: 101.661 [ms]
[OGL LOG][Proc: 0]Ux: update_non_local_matrix_data: 1.165 [ms]
[OGL LOG][Proc: 0]Ux_matrix: call_update: 3.572 [ms]
[OGL LOG][Proc: 0]Ux_rhs: call_update: 2.057 [ms]
[OGL LOG][Preconditioner.H:121] Generate preconditioner BJ MaxBlockSize 1
[OGL LOG][Proc: 0]Ux: init_precond: 1.67 [ms]
[OGL LOG][StoppingCriterion.H:239] Creating stopping criterion with minIter 8 frequency 1
[OGL LOG][Proc: 0]Ux: generate_solver: 0.015 [ms]
[OGL LOG][Proc: 0]Ux: solve: 124.707 [ms]
[OGL LOG][Proc: 0]Ux: copy_x_back: 5.772 [ms]
[OGL LOG][lduLduBase.H:330] 
Statistics:
	Time per iteration: 31176 [mu s]
	Time per residual norm calculation: 1810.000000 [mu s]
	Time per iteration and DOF: 1.235743 [ns]
	Retrieve results bandwidth 2.621000 [GByte/s]
[OGL LOG][Proc: 0]Ux: solve_multi_gpu: 147.723 [ms]
BJcudaGKOBiCGStab:  Solving for Ux, Initial residual = 0.8165495422735888, Final residual = 0.0094955803023535, No Iterations 4
[OGL LOG][Proc: 0]: global_index_init: 0.083 [ms]
[OGL LOG][Proc: 0]Uy_local_coeffs: call_update: 0 [ms]
[OGL LOG][Proc: 0]Uy_non_local_coeffs: call_update: 0 [ms]
[OGL LOG][Proc: 0]Uy: update_local_matrix_data: 98.27200000000001 [ms]
[OGL LOG][Proc: 0]Uy: update_non_local_matrix_data: 1.235 [ms]
[OGL LOG][Proc: 0]Uy_matrix: call_update: 3.51 [ms]
[OGL LOG][Proc: 0]Uy_rhs: call_update: 2.333 [ms]
[OGL LOG][Preconditioner.H:121] Generate preconditioner BJ MaxBlockSize 1
[OGL LOG][Proc: 0]Uy: init_precond: 1.615 [ms]
[OGL LOG][StoppingCriterion.H:239] Creating stopping criterion with minIter 12 frequency 1
[OGL LOG][Proc: 0]Uy: generate_solver: 0.015 [ms]
[OGL LOG][Proc: 0]Uy: solve: 140.101 [ms]
[OGL LOG][Proc: 0]Uy: copy_x_back: 5.513 [ms]
[OGL LOG][lduLduBase.H:330] 
Statistics:
	Time per iteration: 20014 [mu s]
	Time per residual norm calculation: 1683.000000 [mu s]
	Time per iteration and DOF: 0.793308 [ns]
	Retrieve results bandwidth 2.744000 [GByte/s]
[OGL LOG][Proc: 0]Uy: solve_multi_gpu: 161.792 [ms]
BJcudaGKOBiCGStab:  Solving for Uy, Initial residual = 0.9994003877468173, Final residual = 0.002351145183305104, No Iterations 7
[OGL LOG][Proc: 0]: global_index_init: 0.395 [ms]
[OGL LOG][Proc: 0]Uz_local_coeffs: call_update: 0 [ms]
[OGL LOG][Proc: 0]Uz_non_local_coeffs: call_update: 0 [ms]
[OGL LOG][Proc: 0]Uz: update_local_matrix_data: 99.075 [ms]
[OGL LOG][Proc: 0]Uz: update_non_local_matrix_data: 1.136 [ms]
[OGL LOG][Proc: 0]Uz_matrix: call_update: 3.022 [ms]
[OGL LOG][Proc: 0]Uz_rhs: call_update: 2.676 [ms]
[OGL LOG][Preconditioner.H:121] Generate preconditioner BJ MaxBlockSize 1
[OGL LOG][Proc: 0]Uz: init_precond: 2.212 [ms]
[OGL LOG][StoppingCriterion.H:239] Creating stopping criterion with minIter 1 frequency 1
[OGL LOG][Proc: 0]Uz: generate_solver: 0.024 [ms]
[OGL LOG][Proc: 0]Uz: solve: 99.05500000000001 [ms]
[OGL LOG][Proc: 0]Uz: copy_x_back: 5.688 [ms]
[OGL LOG][lduLduBase.H:330] 
Statistics:
	Time per iteration: 49527 [mu s]
	Time per residual norm calculation: 1482.000000 [mu s]
	Time per iteration and DOF: 1.963134 [ns]
	Retrieve results bandwidth 2.659000 [GByte/s]
[OGL LOG][Proc: 0]Uz: solve_multi_gpu: 121.413 [ms]
BJcudaGKOBiCGStab:  Solving for Uz, Initial residual = 0.999968949314689, Final residual = 0.09491181601248065, No Iterations 2
[OGL LOG][Proc: 0]: global_index_init: 0.144 [ms]
[OGL LOG][Proc: 0]p_local_coeffs: call_update: 0 [ms]
[OGL LOG][Proc: 0]p_non_local_coeffs: call_update: 0 [ms]
[OGL LOG][Proc: 0]p: update_local_matrix_data: 75.08 [ms]
[OGL LOG][Proc: 0]p: update_non_local_matrix_data: 1.202 [ms]
[OGL LOG][Proc: 0]p_matrix: call_update: 3.278 [ms]
[OGL LOG][Proc: 0]p_rhs: call_update: 2.098 [ms]
[OGL LOG][Preconditioner.H:121] Generate preconditioner BJ MaxBlockSize 1
[OGL LOG][Proc: 0]p: init_precond: 2.016 [ms]
[OGL LOG][StoppingCriterion.H:239] Creating stopping criterion with minIter 718 frequency 10
[OGL LOG][Proc: 0]p: generate_solver: 0.016 [ms]
[OGL LOG][Proc: 0]p: solve: 3960.948 [ms]
[OGL LOG][Proc: 0]p: copy_x_back: 5.582 [ms]
[OGL LOG][lduLduBase.H:330] 
Statistics:
	Time per iteration: 4300 [mu s]
	Time per residual norm calculation: 1436.000000 [mu s]
	Time per iteration and DOF: 0.170442 [ns]
	Retrieve results bandwidth 2.710000 [GByte/s]
[OGL LOG][Proc: 0]p: solve_multi_gpu: 3981.615 [ms]
BJcudaGKOCG:  Solving for p, Initial residual = 0.4300191610822731, Final residual = 0.003768524170037362, No Iterations 921
time step continuity errors : sum local = 0.082029339436912, global = 0.004551991154913322, cumulative = 0.004625166603662107
[OGL LOG][Proc: 0]: global_index_init: 0.025 [ms]
[OGL LOG][Proc: 0]nuTilda_local_coeffs: call_update: 0 [ms]
[OGL LOG][Proc: 0]nuTilda_non_local_coeffs: call_update: 0 [ms]
[OGL LOG][Proc: 0]nuTilda: update_local_matrix_data: 101.649 [ms]
[OGL LOG][Proc: 0]nuTilda: update_non_local_matrix_data: 1.11 [ms]
[OGL LOG][Proc: 0]nuTilda_matrix: call_update: 3.114 [ms]
[OGL LOG][Proc: 0]nuTilda_rhs: call_update: 2.173 [ms]
[OGL LOG][Preconditioner.H:121] Generate preconditioner BJ MaxBlockSize 1
[OGL LOG][Proc: 0]nuTilda: init_precond: 1.646 [ms]
[OGL LOG][StoppingCriterion.H:239] Creating stopping criterion with minIter 3 frequency 1
[OGL LOG][Proc: 0]nuTilda: generate_solver: 0.017 [ms]
[OGL LOG][Proc: 0]nuTilda: solve: 104.312 [ms]
[OGL LOG][Proc: 0]nuTilda: copy_x_back: 5.361 [ms]
[OGL LOG][lduLduBase.H:330] 
Statistics:
	Time per iteration: 52156 [mu s]
	Time per residual norm calculation: 1626.000000 [mu s]
	Time per iteration and DOF: 2.067341 [ns]
	Retrieve results bandwidth 2.822000 [GByte/s]
[OGL LOG][Proc: 0]nuTilda: solve_multi_gpu: 121.929 [ms]
BJcudaGKOBiCGStab:  Solving for nuTilda, Initial residual = 0.2443888722592791, Final residual = 0.01627301859040967, No Iterations 2
ExecutionTime = 431.72 s  ClockTime = 434 s

Time = 3

velocityDampingConstraint velocityDamping damped 19457 (0.08%) of cells, with max limit 300
[OGL LOG][Proc: 0]: global_index_init: 0.08400000000000001 [ms]
[OGL LOG][Proc: 0]Ux_local_coeffs: call_update: 0 [ms]
[OGL LOG][Proc: 0]Ux_non_local_coeffs: call_update: 0 [ms]
[OGL LOG][Proc: 0]Ux: update_local_matrix_data: 100.446 [ms]
[OGL LOG][Proc: 0]Ux: update_non_local_matrix_data: 1.11 [ms]
[OGL LOG][Proc: 0]Ux_matrix: call_update: 4.002 [ms]
[OGL LOG][Proc: 0]Ux_rhs: call_update: 1.82 [ms]
[OGL LOG][Preconditioner.H:121] Generate preconditioner BJ MaxBlockSize 1
[OGL LOG][Proc: 0]Ux: init_precond: 1.752 [ms]
[OGL LOG][StoppingCriterion.H:239] Creating stopping criterion with minIter 5 frequency 1
[OGL LOG][Proc: 0]Ux: generate_solver: 0.025 [ms]
[OGL LOG][Proc: 0]Ux: solve: 110.762 [ms]
[OGL LOG][Proc: 0]Ux: copy_x_back: 5.719 [ms]
[OGL LOG][lduLduBase.H:330] 
Statistics:
	Time per iteration: 36920 [mu s]
	Time per residual norm calculation: 1847.000000 [mu s]
	Time per iteration and DOF: 1.463422 [ns]
	Retrieve results bandwidth 2.645000 [GByte/s]
[OGL LOG][Proc: 0]Ux: solve_multi_gpu: 132.335 [ms]
BJcudaGKOBiCGStab:  Solving for Ux, Initial residual = 0.2939872093582361, Final residual = 0.00474329199453445, No Iterations 3
[OGL LOG][Proc: 0]: global_index_init: 0.08699999999999999 [ms]
[OGL LOG][Proc: 0]Uy_local_coeffs: call_update: 0 [ms]
[OGL LOG][Proc: 0]Uy_non_local_coeffs: call_update: 0 [ms]
[OGL LOG][Proc: 0]Uy: update_local_matrix_data: 98.131 [ms]
[OGL LOG][Proc: 0]Uy: update_non_local_matrix_data: 1.089 [ms]
[OGL LOG][Proc: 0]Uy_matrix: call_update: 3.721 [ms]
[OGL LOG][Proc: 0]Uy_rhs: call_update: 4.649 [ms]
[OGL LOG][Preconditioner.H:121] Generate preconditioner BJ MaxBlockSize 1
[OGL LOG][Proc: 0]Uy: init_precond: 1.785 [ms]
[OGL LOG][StoppingCriterion.H:239] Creating stopping criterion with minIter 8 frequency 1
[OGL LOG][Proc: 0]Uy: generate_solver: 0.014 [ms]
[OGL LOG][Proc: 0]Uy: solve: 127.762 [ms]
[OGL LOG][Proc: 0]Uy: copy_x_back: 5.506 [ms]
[OGL LOG][lduLduBase.H:330] 
Statistics:
	Time per iteration: 31940 [mu s]
	Time per residual norm calculation: 1626.000000 [mu s]
	Time per iteration and DOF: 1.266026 [ns]
	Retrieve results bandwidth 2.747000 [GByte/s]
[OGL LOG][Proc: 0]Uy: solve_multi_gpu: 150.728 [ms]
BJcudaGKOBiCGStab:  Solving for Uy, Initial residual = 0.2879971873360066, Final residual = 0.006615154132569121, No Iterations 4
[OGL LOG][Proc: 0]: global_index_init: 0.414 [ms]
[OGL LOG][Proc: 0]Uz_local_coeffs: call_update: 0 [ms]
[OGL LOG][Proc: 0]Uz_non_local_coeffs: call_update: 0 [ms]
[OGL LOG][Proc: 0]Uz: update_local_matrix_data: 101.299 [ms]
[OGL LOG][Proc: 0]Uz: update_non_local_matrix_data: 1.122 [ms]
[OGL LOG][Proc: 0]Uz_matrix: call_update: 3.174 [ms]
[OGL LOG][Proc: 0]Uz_rhs: call_update: 2.61 [ms]
[OGL LOG][Preconditioner.H:121] Generate preconditioner BJ MaxBlockSize 1
[OGL LOG][Proc: 0]Uz: init_precond: 1.603 [ms]
[OGL LOG][StoppingCriterion.H:239] Creating stopping criterion with minIter 2 frequency 1
[OGL LOG][Proc: 0]Uz: generate_solver: 0.017 [ms]
[OGL LOG][Proc: 0]Uz: solve: 100.957 [ms]
[OGL LOG][Proc: 0]Uz: copy_x_back: 5.709 [ms]
[OGL LOG][lduLduBase.H:330] 
Statistics:
	Time per iteration: 50478 [mu s]
	Time per residual norm calculation: 1486.000000 [mu s]
	Time per iteration and DOF: 2.000829 [ns]
	Retrieve results bandwidth 2.650000 [GByte/s]
[OGL LOG][Proc: 0]Uz: solve_multi_gpu: 120.557 [ms]
BJcudaGKOBiCGStab:  Solving for Uz, Initial residual = 0.2542924074064216, Final residual = 0.02476469181413559, No Iterations 2
[OGL LOG][Proc: 0]: global_index_init: 0.02 [ms]
[OGL LOG][Proc: 0]p_local_coeffs: call_update: 0 [ms]
[OGL LOG][Proc: 0]p_non_local_coeffs: call_update: 0 [ms]
[OGL LOG][Proc: 0]p: update_local_matrix_data: 76.959 [ms]
[OGL LOG][Proc: 0]p: update_non_local_matrix_data: 1.134 [ms]
[OGL LOG][Proc: 0]p_matrix: call_update: 3.27 [ms]
[OGL LOG][Proc: 0]p_rhs: call_update: 2.341 [ms]
[OGL LOG][Preconditioner.H:121] Generate preconditioner BJ MaxBlockSize 1
[OGL LOG][Proc: 0]p: init_precond: 1.671 [ms]
[OGL LOG][StoppingCriterion.H:239] Creating stopping criterion with minIter 552 frequency 13
[OGL LOG][Proc: 0]p: generate_solver: 0.015 [ms]
[OGL LOG][Proc: 0]p: solve: 4224 [ms]
[OGL LOG][Proc: 0]p: copy_x_back: 5.838 [ms]
[OGL LOG][lduLduBase.H:330] 
Statistics:
	Time per iteration: 4108 [mu s]
	Time per residual norm calculation: 1435.000000 [mu s]
	Time per iteration and DOF: 0.162831 [ns]
	Retrieve results bandwidth 2.591000 [GByte/s]
[OGL LOG][Proc: 0]p: solve_multi_gpu: 4243.382 [ms]
BJcudaGKOCG:  Solving for p, Initial residual = 0.2869886644093912, Final residual = 0.002827544817808256, No Iterations 1028
time step continuity errors : sum local = 0.02316193690097084, global = -0.0001733668440637516, cumulative = 0.004451799759598356
[OGL LOG][Proc: 0]: global_index_init: 0.028 [ms]
[OGL LOG][Proc: 0]nuTilda_local_coeffs: call_update: 0 [ms]
[OGL LOG][Proc: 0]nuTilda_non_local_coeffs: call_update: 0 [ms]
[OGL LOG][Proc: 0]nuTilda: update_local_matrix_data: 95.956 [ms]
[OGL LOG][Proc: 0]nuTilda: update_non_local_matrix_data: 1.111 [ms]
[OGL LOG][Proc: 0]nuTilda_matrix: call_update: 3.381 [ms]
[OGL LOG][Proc: 0]nuTilda_rhs: call_update: 2.02 [ms]
[OGL LOG][Preconditioner.H:121] Generate preconditioner BJ MaxBlockSize 1
[OGL LOG][Proc: 0]nuTilda: init_precond: 1.714 [ms]
[OGL LOG][StoppingCriterion.H:239] Creating stopping criterion with minIter 3 frequency 1
[OGL LOG][Proc: 0]nuTilda: generate_solver: 0.015 [ms]
[OGL LOG][Proc: 0]nuTilda: solve: 97.087 [ms]
[OGL LOG][Proc: 0]nuTilda: copy_x_back: 5.778 [ms]
[OGL LOG][lduLduBase.H:330] 
Statistics:
	Time per iteration: 48543 [mu s]
	Time per residual norm calculation: 1701.000000 [mu s]
	Time per iteration and DOF: 1.924130 [ns]
	Retrieve results bandwidth 2.618000 [GByte/s]
[OGL LOG][Proc: 0]nuTilda: solve_multi_gpu: 121.594 [ms]
BJcudaGKOBiCGStab:  Solving for nuTilda, Initial residual = 0.2257439469243492, Final residual = 0.0127145163789242, No Iterations 2
ExecutionTime = 444.32 s  ClockTime = 447 s

Time = 4

velocityDampingConstraint velocityDamping damped 429 (0%) of cells, with max limit 300
[OGL LOG][Proc: 0]: global_index_init: 0.107 [ms]
[OGL LOG][Proc: 0]Ux_local_coeffs: call_update: 0 [ms]
[OGL LOG][Proc: 0]Ux_non_local_coeffs: call_update: 0 [ms]
[OGL LOG][Proc: 0]Ux: update_local_matrix_data: 100.262 [ms]
[OGL LOG][Proc: 0]Ux: update_non_local_matrix_data: 1.27 [ms]
[OGL LOG][Proc: 0]Ux_matrix: call_update: 3.463 [ms]
[OGL LOG][Proc: 0]Ux_rhs: call_update: 2.166 [ms]
[OGL LOG][Preconditioner.H:121] Generate preconditioner BJ MaxBlockSize 1
[OGL LOG][Proc: 0]Ux: init_precond: 1.706 [ms]
[OGL LOG][StoppingCriterion.H:239] Creating stopping criterion with minIter 3 frequency 1
[OGL LOG][Proc: 0]Ux: generate_solver: 0.014 [ms]
[OGL LOG][Proc: 0]Ux: solve: 127.62 [ms]
[OGL LOG][Proc: 0]Ux: copy_x_back: 5.627 [ms]
[OGL LOG][lduLduBase.H:330] 
Statistics:
	Time per iteration: 31905 [mu s]
	Time per residual norm calculation: 1706.000000 [mu s]
	Time per iteration and DOF: 1.264639 [ns]
	Retrieve results bandwidth 2.688000 [GByte/s]
[OGL LOG][Proc: 0]Ux: solve_multi_gpu: 148.717 [ms]
BJcudaGKOBiCGStab:  Solving for Ux, Initial residual = 0.04714378760879809, Final residual = 0.002953066251428034, No Iterations 4
[OGL LOG][Proc: 0]: global_index_init: 0.09 [ms]
[OGL LOG][Proc: 0]Uy_local_coeffs: call_update: 0 [ms]
[OGL LOG][Proc: 0]Uy_non_local_coeffs: call_update: 0 [ms]
[OGL LOG][Proc: 0]Uy: update_local_matrix_data: 98.236 [ms]
[OGL LOG][Proc: 0]Uy: update_non_local_matrix_data: 1.159 [ms]
[OGL LOG][Proc: 0]Uy_matrix: call_update: 3.415 [ms]
[OGL LOG][Proc: 0]Uy_rhs: call_update: 4.743 [ms]
[OGL LOG][Preconditioner.H:121] Generate preconditioner BJ MaxBlockSize 1
[OGL LOG][Proc: 0]Uy: init_precond: 2.252 [ms]
[OGL LOG][StoppingCriterion.H:239] Creating stopping criterion with minIter 5 frequency 1
[OGL LOG][Proc: 0]Uy: generate_solver: 0.017 [ms]
[OGL LOG][Proc: 0]Uy: solve: 125.299 [ms]
[OGL LOG][Proc: 0]Uy: copy_x_back: 5.499 [ms]
[OGL LOG][lduLduBase.H:330] 
Statistics:
	Time per iteration: 31324 [mu s]
	Time per residual norm calculation: 1556.000000 [mu s]
	Time per iteration and DOF: 1.241610 [ns]
	Retrieve results bandwidth 2.751000 [GByte/s]
[OGL LOG][Proc: 0]Uy: solve_multi_gpu: 147.587 [ms]
BJcudaGKOBiCGStab:  Solving for Uy, Initial residual = 0.1245237030383987, Final residual = 0.006273288474840213, No Iterations 4
[OGL LOG][Proc: 0]: global_index_init: 2.566 [ms]
[OGL LOG][Proc: 0]Uz_local_coeffs: call_update: 0 [ms]
[OGL LOG][Proc: 0]Uz_non_local_coeffs: call_update: 0 [ms]
[OGL LOG][Proc: 0]Uz: update_local_matrix_data: 100.727 [ms]
[OGL LOG][Proc: 0]Uz: update_non_local_matrix_data: 1.107 [ms]
[OGL LOG][Proc: 0]Uz_matrix: call_update: 3.45 [ms]
[OGL LOG][Proc: 0]Uz_rhs: call_update: 4.339 [ms]
[OGL LOG][Preconditioner.H:121] Generate preconditioner BJ MaxBlockSize 1
[OGL LOG][Proc: 0]Uz: init_precond: 1.694 [ms]
[OGL LOG][StoppingCriterion.H:239] Creating stopping criterion with minIter 3 frequency 1
[OGL LOG][Proc: 0]Uz: generate_solver: 0.016 [ms]
[OGL LOG][Proc: 0]Uz: solve: 116.522 [ms]
[OGL LOG][Proc: 0]Uz: copy_x_back: 5.733 [ms]
[OGL LOG][lduLduBase.H:330] 
Statistics:
	Time per iteration: 38840 [mu s]
	Time per residual norm calculation: 1557.000000 [mu s]
	Time per iteration and DOF: 1.539526 [ns]
	Retrieve results bandwidth 2.638000 [GByte/s]
[OGL LOG][Proc: 0]Uz: solve_multi_gpu: 136.531 [ms]
BJcudaGKOBiCGStab:  Solving for Uz, Initial residual = 0.1062431539358585, Final residual = 0.0101544718294227, No Iterations 3
[OGL LOG][Proc: 0]: global_index_init: 0.045 [ms]
[OGL LOG][Proc: 0]p_local_coeffs: call_update: 0 [ms]
[OGL LOG][Proc: 0]p_non_local_coeffs: call_update: 0 [ms]
[OGL LOG][Proc: 0]p: update_local_matrix_data: 74.389 [ms]
[OGL LOG][Proc: 0]p: update_non_local_matrix_data: 1.19 [ms]
[OGL LOG][Proc: 0]p_matrix: call_update: 3.323 [ms]
[OGL LOG][Proc: 0]p_rhs: call_update: 2.235 [ms]
[OGL LOG][Preconditioner.H:121] Generate preconditioner BJ MaxBlockSize 1
[OGL LOG][Proc: 0]p: init_precond: 2.095 [ms]
[OGL LOG][StoppingCriterion.H:239] Creating stopping criterion with minIter 616 frequency 14
[OGL LOG][Proc: 0]p: generate_solver: 0.015 [ms]
[OGL LOG][Proc: 0]p: solve: 2502.734 [ms]
[OGL LOG][Proc: 0]p: copy_x_back: 5.657 [ms]
[OGL LOG][lduLduBase.H:330] 
Statistics:
	Time per iteration: 4056 [mu s]
	Time per residual norm calculation: 1285.000000 [mu s]
	Time per iteration and DOF: 0.160770 [ns]
	Retrieve results bandwidth 2.674000 [GByte/s]
[OGL LOG][Proc: 0]p: solve_multi_gpu: 2523.483 [ms]
BJcudaGKOCG:  Solving for p, Initial residual = 0.3972478798444522, Final residual = 0.0009856883736011233, No Iterations 617
time step continuity errors : sum local = 0.0146750279599274, global = -0.00182787199062131, cumulative = 0.002623927768977046
[OGL LOG][Proc: 0]: global_index_init: 0.025 [ms]
[OGL LOG][Proc: 0]nuTilda_local_coeffs: call_update: 0 [ms]
[OGL LOG][Proc: 0]nuTilda_non_local_coeffs: call_update: 0 [ms]
[OGL LOG][Proc: 0]nuTilda: update_local_matrix_data: 93.73399999999999 [ms]
[OGL LOG][Proc: 0]nuTilda: update_non_local_matrix_data: 1.216 [ms]
[OGL LOG][Proc: 0]nuTilda_matrix: call_update: 3.105 [ms]
[OGL LOG][Proc: 0]nuTilda_rhs: call_update: 2.551 [ms]
[OGL LOG][Preconditioner.H:121] Generate preconditioner BJ MaxBlockSize 1
[OGL LOG][Proc: 0]nuTilda: init_precond: 1.609 [ms]
[OGL LOG][StoppingCriterion.H:239] Creating stopping criterion with minIter 2 frequency 1
[OGL LOG][Proc: 0]nuTilda: generate_solver: 0.018 [ms]
[OGL LOG][Proc: 0]nuTilda: solve: 107.836 [ms]
[OGL LOG][Proc: 0]nuTilda: copy_x_back: 5.511 [ms]
[OGL LOG][lduLduBase.H:330] 
Statistics:
	Time per iteration: 53918 [mu s]
	Time per residual norm calculation: 1635.000000 [mu s]
	Time per iteration and DOF: 2.137182 [ns]
	Retrieve results bandwidth 2.745000 [GByte/s]
[OGL LOG][Proc: 0]nuTilda: solve_multi_gpu: 134.162 [ms]
BJcudaGKOBiCGStab:  Solving for nuTilda, Initial residual = 0.1348867981126318, Final residual = 0.00758100823988405, No Iterations 2
ExecutionTime = 455.28 s  ClockTime = 458 s

Time = 5

velocityDampingConstraint velocityDamping damped 7108 (0.03%) of cells, with max limit 300
[OGL LOG][Proc: 0]: global_index_init: 0.115 [ms]
[OGL LOG][Proc: 0]Ux_local_coeffs: call_update: 0 [ms]
[OGL LOG][Proc: 0]Ux_non_local_coeffs: call_update: 0 [ms]
[OGL LOG][Proc: 0]Ux: update_local_matrix_data: 97.601 [ms]
[OGL LOG][Proc: 0]Ux: update_non_local_matrix_data: 1.064 [ms]
[OGL LOG][Proc: 0]Ux_matrix: call_update: 3.124 [ms]
[OGL LOG][Proc: 0]Ux_rhs: call_update: 2.381 [ms]
[OGL LOG][Preconditioner.H:121] Generate preconditioner BJ MaxBlockSize 1
[OGL LOG][Proc: 0]Ux: init_precond: 1.648 [ms]
[OGL LOG][StoppingCriterion.H:239] Creating stopping criterion with minIter 4 frequency 1
[OGL LOG][Proc: 0]Ux: generate_solver: 0.014 [ms]
[OGL LOG][Proc: 0]Ux: solve: 105.516 [ms]
[OGL LOG][Proc: 0]Ux: copy_x_back: 5.804 [ms]
[OGL LOG][lduLduBase.H:330] 
Statistics:
	Time per iteration: 52758 [mu s]
	Time per residual norm calculation: 1621.000000 [mu s]
	Time per iteration and DOF: 2.091203 [ns]
	Retrieve results bandwidth 2.606000 [GByte/s]
[OGL LOG][Proc: 0]Ux: solve_multi_gpu: 131.883 [ms]
BJcudaGKOBiCGStab:  Solving for Ux, Initial residual = 0.3379120953986579, Final residual = 0.02720843495105609, No Iterations 2
[OGL LOG][Proc: 0]: global_index_init: 0.09 [ms]
[OGL LOG][Proc: 0]Uy_local_coeffs: call_update: 0 [ms]
[OGL LOG][Proc: 0]Uy_non_local_coeffs: call_update: 0 [ms]
[OGL LOG][Proc: 0]Uy: update_local_matrix_data: 100.408 [ms]
[OGL LOG][Proc: 0]Uy: update_non_local_matrix_data: 1.131 [ms]
[OGL LOG][Proc: 0]Uy_matrix: call_update: 3.436 [ms]
[OGL LOG][Proc: 0]Uy_rhs: call_update: 2.136 [ms]
[OGL LOG][Preconditioner.H:121] Generate preconditioner BJ MaxBlockSize 1
[OGL LOG][Proc: 0]Uy: init_precond: 1.691 [ms]
[OGL LOG][StoppingCriterion.H:239] Creating stopping criterion with minIter 4 frequency 1
[OGL LOG][Proc: 0]Uy: generate_solver: 0.014 [ms]
[OGL LOG][Proc: 0]Uy: solve: 111.695 [ms]
[OGL LOG][Proc: 0]Uy: copy_x_back: 5.617 [ms]
[OGL LOG][lduLduBase.H:330] 
Statistics:
	Time per iteration: 37231 [mu s]
	Time per residual norm calculation: 1626.000000 [mu s]
	Time per iteration and DOF: 1.475749 [ns]
	Retrieve results bandwidth 2.693000 [GByte/s]
[OGL LOG][Proc: 0]Uy: solve_multi_gpu: 131.52 [ms]
BJcudaGKOBiCGStab:  Solving for Uy, Initial residual = 0.4034950335416262, Final residual = 0.02770270711159606, No Iterations 3
[OGL LOG][Proc: 0]: global_index_init: 0.975 [ms]
[OGL LOG][Proc: 0]Uz_local_coeffs: call_update: 0 [ms]
[OGL LOG][Proc: 0]Uz_non_local_coeffs: call_update: 0 [ms]
[OGL LOG][Proc: 0]Uz: update_local_matrix_data: 101.409 [ms]
[OGL LOG][Proc: 0]Uz: update_non_local_matrix_data: 1.13 [ms]
[OGL LOG][Proc: 0]Uz_matrix: call_update: 2.951 [ms]
[OGL LOG][Proc: 0]Uz_rhs: call_update: 4.784 [ms]
[OGL LOG][Preconditioner.H:121] Generate preconditioner BJ MaxBlockSize 1
[OGL LOG][Proc: 0]Uz: init_precond: 1.755 [ms]
[OGL LOG][StoppingCriterion.H:239] Creating stopping criterion with minIter 3 frequency 1
[OGL LOG][Proc: 0]Uz: generate_solver: 0.015 [ms]
[OGL LOG][Proc: 0]Uz: solve: 123.569 [ms]
[OGL LOG][Proc: 0]Uz: copy_x_back: 5.791 [ms]
[OGL LOG][lduLduBase.H:330] 
Statistics:
	Time per iteration: 41189 [mu s]
	Time per residual norm calculation: 1480.000000 [mu s]
	Time per iteration and DOF: 1.632635 [ns]
	Retrieve results bandwidth 2.612000 [GByte/s]
[OGL LOG][Proc: 0]Uz: solve_multi_gpu: 145.539 [ms]
BJcudaGKOBiCGStab:  Solving for Uz, Initial residual = 0.4292504063928401, Final residual = 0.036115131297051, No Iterations 3
[OGL LOG][Proc: 0]: global_index_init: 0.021 [ms]
[OGL LOG][Proc: 0]p_local_coeffs: call_update: 0 [ms]
[OGL LOG][Proc: 0]p_non_local_coeffs: call_update: 0 [ms]
[OGL LOG][Proc: 0]p: update_local_matrix_data: 74.72499999999999 [ms]
[OGL LOG][Proc: 0]p: update_non_local_matrix_data: 1.165 [ms]
[OGL LOG][Proc: 0]p_matrix: call_update: 3.258 [ms]
[OGL LOG][Proc: 0]p_rhs: call_update: 2.158 [ms]
[OGL LOG][Preconditioner.H:121] Generate preconditioner BJ MaxBlockSize 1
[OGL LOG][Proc: 0]p: init_precond: 1.606 [ms]
[OGL LOG][StoppingCriterion.H:239] Creating stopping criterion with minIter 370 frequency 9
[OGL LOG][Proc: 0]p: generate_solver: 0.016 [ms]
[OGL LOG][Proc: 0]p: solve: 3714.059 [ms]
[OGL LOG][Proc: 0]p: copy_x_back: 5.691 [ms]
[OGL LOG][lduLduBase.H:330] 
Statistics:
	Time per iteration: 4081 [mu s]
	Time per residual norm calculation: 1276.000000 [mu s]
	Time per iteration and DOF: 0.161761 [ns]
	Retrieve results bandwidth 2.658000 [GByte/s]
[OGL LOG][Proc: 0]p: solve_multi_gpu: 3734.688 [ms]
BJcudaGKOCG:  Solving for p, Initial residual = 0.2503142367821685, Final residual = 0.002333356855729391, No Iterations 910
time step continuity errors : sum local = 0.0322067790504952, global = -0.001249183834700536, cumulative = 0.00137474393427651
[OGL LOG][Proc: 0]: global_index_init: 0.023 [ms]
[OGL LOG][Proc: 0]nuTilda_local_coeffs: call_update: 0 [ms]
[OGL LOG][Proc: 0]nuTilda_non_local_coeffs: call_update: 0 [ms]
[OGL LOG][Proc: 0]nuTilda: update_local_matrix_data: 101.336 [ms]
[OGL LOG][Proc: 0]nuTilda: update_non_local_matrix_data: 1.086 [ms]
[OGL LOG][Proc: 0]nuTilda_matrix: call_update: 3.536 [ms]
[OGL LOG][Proc: 0]nuTilda_rhs: call_update: 2.039 [ms]
[OGL LOG][Preconditioner.H:121] Generate preconditioner BJ MaxBlockSize 1
[OGL LOG][Proc: 0]nuTilda: init_precond: 2.067 [ms]
[OGL LOG][StoppingCriterion.H:239] Creating stopping criterion with minIter 3 frequency 1
[OGL LOG][Proc: 0]nuTilda: generate_solver: 0.016 [ms]
[OGL LOG][Proc: 0]nuTilda: solve: 105.496 [ms]
[OGL LOG][Proc: 0]nuTilda: copy_x_back: 5.42 [ms]
[OGL LOG][lduLduBase.H:330] 
Statistics:
	Time per iteration: 52748 [mu s]
	Time per residual norm calculation: 1621.000000 [mu s]
	Time per iteration and DOF: 2.090806 [ns]
	Retrieve results bandwidth 2.791000 [GByte/s]
[OGL LOG][Proc: 0]nuTilda: solve_multi_gpu: 122.879 [ms]
BJcudaGKOBiCGStab:  Solving for nuTilda, Initial residual = 0.09012157974737643, Final residual = 0.004135209571258639, No Iterations 2
ExecutionTime = 467.58 s  ClockTime = 470 s

Time = 6

velocityDampingConstraint velocityDamping damped 866 (0%) of cells, with max limit 300
[OGL LOG][Proc: 0]: global_index_init: 0.116 [ms]
[OGL LOG][Proc: 0]Ux_local_coeffs: call_update: 0 [ms]
[OGL LOG][Proc: 0]Ux_non_local_coeffs: call_update: 0 [ms]
[OGL LOG][Proc: 0]Ux: update_local_matrix_data: 99.31999999999999 [ms]
[OGL LOG][Proc: 0]Ux: update_non_local_matrix_data: 1.124 [ms]
[OGL LOG][Proc: 0]Ux_matrix: call_update: 3.436 [ms]
[OGL LOG][Proc: 0]Ux_rhs: call_update: 2.19 [ms]
[OGL LOG][Preconditioner.H:121] Generate preconditioner BJ MaxBlockSize 1
[OGL LOG][Proc: 0]Ux: init_precond: 1.663 [ms]
[OGL LOG][StoppingCriterion.H:239] Creating stopping criterion with minIter 3 frequency 1
[OGL LOG][Proc: 0]Ux: generate_solver: 0.015 [ms]
[OGL LOG][Proc: 0]Ux: solve: 127.723 [ms]
[OGL LOG][Proc: 0]Ux: copy_x_back: 5.744 [ms]
[OGL LOG][lduLduBase.H:330] 
Statistics:
	Time per iteration: 31930 [mu s]
	Time per residual norm calculation: 1324.000000 [mu s]
	Time per iteration and DOF: 1.265630 [ns]
	Retrieve results bandwidth 2.633000 [GByte/s]
[OGL LOG][Proc: 0]Ux: solve_multi_gpu: 151.634 [ms]
BJcudaGKOBiCGStab:  Solving for Ux, Initial residual = 0.1775396428471278, Final residual = 0.008037108041328673, No Iterations 4
[OGL LOG][Proc: 0]: global_index_init: 0.08400000000000001 [ms]
[OGL LOG][Proc: 0]Uy_local_coeffs: call_update: 0 [ms]
[OGL LOG][Proc: 0]Uy_non_local_coeffs: call_update: 0 [ms]
[OGL LOG][Proc: 0]Uy: update_local_matrix_data: 101.414 [ms]
[OGL LOG][Proc: 0]Uy: update_non_local_matrix_data: 1.076 [ms]
[OGL LOG][Proc: 0]Uy_matrix: call_update: 3.075 [ms]
[OGL LOG][Proc: 0]Uy_rhs: call_update: 2.351 [ms]
[OGL LOG][Preconditioner.H:121] Generate preconditioner BJ MaxBlockSize 1
[OGL LOG][Proc: 0]Uy: init_precond: 2.145 [ms]
[OGL LOG][StoppingCriterion.H:239] Creating stopping criterion with minIter 4 frequency 1
[OGL LOG][Proc: 0]Uy: generate_solver: 0.019 [ms]
[OGL LOG][Proc: 0]Uy: solve: 111.063 [ms]
[OGL LOG][Proc: 0]Uy: copy_x_back: 5.507 [ms]
[OGL LOG][lduLduBase.H:330] 
Statistics:
	Time per iteration: 37021 [mu s]
	Time per residual norm calculation: 1617.000000 [mu s]
	Time per iteration and DOF: 1.467425 [ns]
	Retrieve results bandwidth 2.747000 [GByte/s]
[OGL LOG][Proc: 0]Uy: solve_multi_gpu: 128.8 [ms]
BJcudaGKOBiCGStab:  Solving for Uy, Initial residual = 0.2962610549913954, Final residual = 0.02478247364174698, No Iterations 3
[OGL LOG][Proc: 0]: global_index_init: 0.385 [ms]
[OGL LOG][Proc: 0]Uz_local_coeffs: call_update: 0 [ms]
[OGL LOG][Proc: 0]Uz_non_local_coeffs: call_update: 0 [ms]
[OGL LOG][Proc: 0]Uz: update_local_matrix_data: 101.508 [ms]
[OGL LOG][Proc: 0]Uz: update_non_local_matrix_data: 1.114 [ms]
[OGL LOG][Proc: 0]Uz_matrix: call_update: 3.183 [ms]
[OGL LOG][Proc: 0]Uz_rhs: call_update: 2.165 [ms]
[OGL LOG][Preconditioner.H:121] Generate preconditioner BJ MaxBlockSize 1
[OGL LOG][Proc: 0]Uz: init_precond: 2.196 [ms]
[OGL LOG][StoppingCriterion.H:239] Creating stopping criterion with minIter 4 frequency 1
[OGL LOG][Proc: 0]Uz: generate_solver: 0.02 [ms]
[OGL LOG][Proc: 0]Uz: solve: 108.1 [ms]
[OGL LOG][Proc: 0]Uz: copy_x_back: 5.67 [ms]
[OGL LOG][lduLduBase.H:330] 
Statistics:
	Time per iteration: 36033 [mu s]
	Time per residual norm calculation: 1460.000000 [mu s]
	Time per iteration and DOF: 1.428263 [ns]
	Retrieve results bandwidth 2.668000 [GByte/s]
[OGL LOG][Proc: 0]Uz: solve_multi_gpu: 126.724 [ms]
BJcudaGKOBiCGStab:  Solving for Uz, Initial residual = 0.2734967959703309, Final residual = 0.0240118824032072, No Iterations 3
[OGL LOG][Proc: 0]: global_index_init: 0.02 [ms]
[OGL LOG][Proc: 0]p_local_coeffs: call_update: 0 [ms]
[OGL LOG][Proc: 0]p_non_local_coeffs: call_update: 0 [ms]
[OGL LOG][Proc: 0]p: update_local_matrix_data: 68.539 [ms]
[OGL LOG][Proc: 0]p: update_non_local_matrix_data: 1.143 [ms]
[OGL LOG][Proc: 0]p_matrix: call_update: 2.878 [ms]
[OGL LOG][Proc: 0]p_rhs: call_update: 2.541 [ms]
[OGL LOG][Preconditioner.H:121] Generate preconditioner BJ MaxBlockSize 1
[OGL LOG][Proc: 0]p: init_precond: 1.654 [ms]
[OGL LOG][StoppingCriterion.H:239] Creating stopping criterion with minIter 546 frequency 11
[OGL LOG][Proc: 0]p: generate_solver: 0.015 [ms]
[OGL LOG][Proc: 0]p: solve: 2515.188 [ms]
[OGL LOG][Proc: 0]p: copy_x_back: 5.58 [ms]
[OGL LOG][lduLduBase.H:330] 
Statistics:
	Time per iteration: 4150 [mu s]
	Time per residual norm calculation: 1438.000000 [mu s]
	Time per iteration and DOF: 0.164496 [ns]
	Retrieve results bandwidth 2.711000 [GByte/s]
[OGL LOG][Proc: 0]p: solve_multi_gpu: 2541.755 [ms]
BJcudaGKOCG:  Solving for p, Initial residual = 0.4940381368407156, Final residual = 0.004854316667963023, No Iterations 606
time step continuity errors : sum local = 0.03328731226707468, global = -0.007290823222340627, cumulative = -0.005916079288064117
[OGL LOG][Proc: 0]: global_index_init: 0.022 [ms]
[OGL LOG][Proc: 0]nuTilda_local_coeffs: call_update: 0 [ms]
[OGL LOG][Proc: 0]nuTilda_non_local_coeffs: call_update: 0 [ms]
[OGL LOG][Proc: 0]nuTilda: update_local_matrix_data: 98.867 [ms]
[OGL LOG][Proc: 0]nuTilda: update_non_local_matrix_data: 1.104 [ms]
[OGL LOG][Proc: 0]nuTilda_matrix: call_update: 3.427 [ms]
[OGL LOG][Proc: 0]nuTilda_rhs: call_update: 1.957 [ms]
[OGL LOG][Preconditioner.H:121] Generate preconditioner BJ MaxBlockSize 1
[OGL LOG][Proc: 0]nuTilda: init_precond: 1.73 [ms]
[OGL LOG][StoppingCriterion.H:239] Creating stopping criterion with minIter 3 frequency 1
[OGL LOG][Proc: 0]nuTilda: generate_solver: 0.014 [ms]
[OGL LOG][Proc: 0]nuTilda: solve: 97.212 [ms]
[OGL LOG][Proc: 0]nuTilda: copy_x_back: 5.481 [ms]
[OGL LOG][lduLduBase.H:330] 
Statistics:
	Time per iteration: 48606 [mu s]
	Time per residual norm calculation: 1310.000000 [mu s]
	Time per iteration and DOF: 1.926627 [ns]
	Retrieve results bandwidth 2.760000 [GByte/s]
[OGL LOG][Proc: 0]nuTilda: solve_multi_gpu: 114.48 [ms]
BJcudaGKOBiCGStab:  Solving for nuTilda, Initial residual = 0.06131482895417149, Final residual = 0.005758191445844871, No Iterations 2
ExecutionTime = 478.48 s  ClockTime = 481 s

Time = 7

velocityDampingConstraint velocityDamping damped 2488 (0.01%) of cells, with max limit 300
[OGL LOG][Proc: 0]: global_index_init: 0.12 [ms]
[OGL LOG][Proc: 0]Ux_local_coeffs: call_update: 0 [ms]
[OGL LOG][Proc: 0]Ux_non_local_coeffs: call_update: 0 [ms]
[OGL LOG][Proc: 0]Ux: update_local_matrix_data: 100.986 [ms]
[OGL LOG][Proc: 0]Ux: update_non_local_matrix_data: 1.085 [ms]
[OGL LOG][Proc: 0]Ux_matrix: call_update: 3.743 [ms]
[OGL LOG][Proc: 0]Ux_rhs: call_update: 2.126 [ms]
[OGL LOG][Preconditioner.H:121] Generate preconditioner BJ MaxBlockSize 1
[OGL LOG][Proc: 0]Ux: init_precond: 1.725 [ms]
[OGL LOG][StoppingCriterion.H:239] Creating stopping criterion with minIter 4 frequency 1
[OGL LOG][Proc: 0]Ux: generate_solver: 0.014 [ms]
[OGL LOG][Proc: 0]Ux: solve: 112.066 [ms]
[OGL LOG][Proc: 0]Ux: copy_x_back: 5.648 [ms]
[OGL LOG][lduLduBase.H:330] 
Statistics:
	Time per iteration: 37355 [mu s]
	Time per residual norm calculation: 1685.000000 [mu s]
	Time per iteration and DOF: 1.480664 [ns]
	Retrieve results bandwidth 2.678000 [GByte/s]
[OGL LOG][Proc: 0]Ux: solve_multi_gpu: 131.19 [ms]
BJcudaGKOBiCGStab:  Solving for Ux, Initial residual = 0.2116066401481253, Final residual = 0.01968986859257608, No Iterations 3
[OGL LOG][Proc: 0]: global_index_init: 0.305 [ms]
[OGL LOG][Proc: 0]Uy_local_coeffs: call_update: 0 [ms]
[OGL LOG][Proc: 0]Uy_non_local_coeffs: call_update: 0 [ms]
[OGL LOG][Proc: 0]Uy: update_local_matrix_data: 99.631 [ms]
[OGL LOG][Proc: 0]Uy: update_non_local_matrix_data: 1.141 [ms]
[OGL LOG][Proc: 0]Uy_matrix: call_update: 3.423 [ms]
[OGL LOG][Proc: 0]Uy_rhs: call_update: 2.3 [ms]
[OGL LOG][Preconditioner.H:121] Generate preconditioner BJ MaxBlockSize 1
[OGL LOG][Proc: 0]Uy: init_precond: 2.174 [ms]
[OGL LOG][StoppingCriterion.H:239] Creating stopping criterion with minIter 4 frequency 1
[OGL LOG][Proc: 0]Uy: generate_solver: 0.018 [ms]
[OGL LOG][Proc: 0]Uy: solve: 111.719 [ms]
[OGL LOG][Proc: 0]Uy: copy_x_back: 5.531 [ms]
[OGL LOG][lduLduBase.H:330] 
Statistics:
	Time per iteration: 37239 [mu s]
	Time per residual norm calculation: 1737.000000 [mu s]
	Time per iteration and DOF: 1.476066 [ns]
	Retrieve results bandwidth 2.735000 [GByte/s]
[OGL LOG][Proc: 0]Uy: solve_multi_gpu: 132.026 [ms]
BJcudaGKOBiCGStab:  Solving for Uy, Initial residual = 0.2548129098563994, Final residual = 0.0204670962209728, No Iterations 3
[OGL LOG][Proc: 0]: global_index_init: 0.399 [ms]
[OGL LOG][Proc: 0]Uz_local_coeffs: call_update: 0 [ms]
[OGL LOG][Proc: 0]Uz_non_local_coeffs: call_update: 0 [ms]
[OGL LOG][Proc: 0]Uz: update_local_matrix_data: 97.053 [ms]
[OGL LOG][Proc: 0]Uz: update_non_local_matrix_data: 1.078 [ms]
[OGL LOG][Proc: 0]Uz_matrix: call_update: 3.587 [ms]
[OGL LOG][Proc: 0]Uz_rhs: call_update: 1.946 [ms]
[OGL LOG][Preconditioner.H:121] Generate preconditioner BJ MaxBlockSize 1
[OGL LOG][Proc: 0]Uz: init_precond: 1.692 [ms]
[OGL LOG][StoppingCriterion.H:239] Creating stopping criterion with minIter 4 frequency 1
[OGL LOG][Proc: 0]Uz: generate_solver: 0.015 [ms]
[OGL LOG][Proc: 0]Uz: solve: 110.343 [ms]
[OGL LOG][Proc: 0]Uz: copy_x_back: 5.834 [ms]
[OGL LOG][lduLduBase.H:330] 
Statistics:
	Time per iteration: 36781 [mu s]
	Time per residual norm calculation: 1537.000000 [mu s]
	Time per iteration and DOF: 1.457912 [ns]
	Retrieve results bandwidth 2.593000 [GByte/s]
[OGL LOG][Proc: 0]Uz: solve_multi_gpu: 133.759 [ms]
BJcudaGKOBiCGStab:  Solving for Uz, Initial residual = 0.218271322970658, Final residual = 0.02182339027787242, No Iterations 3
[OGL LOG][Proc: 0]: global_index_init: 0.02 [ms]
[OGL LOG][Proc: 0]p_local_coeffs: call_update: 0 [ms]
[OGL LOG][Proc: 0]p_non_local_coeffs: call_update: 0 [ms]
[OGL LOG][Proc: 0]p: update_local_matrix_data: 75.90300000000001 [ms]
[OGL LOG][Proc: 0]p: update_non_local_matrix_data: 1.133 [ms]
[OGL LOG][Proc: 0]p_matrix: call_update: 3.499 [ms]
[OGL LOG][Proc: 0]p_rhs: call_update: 2.013 [ms]
[OGL LOG][Preconditioner.H:121] Generate preconditioner BJ MaxBlockSize 1
[OGL LOG][Proc: 0]p: init_precond: 1.706 [ms]
[OGL LOG][StoppingCriterion.H:239] Creating stopping criterion with minIter 363 frequency 11
[OGL LOG][Proc: 0]p: generate_solver: 0.016 [ms]
[OGL LOG][Proc: 0]p: solve: 3632.7 [ms]
[OGL LOG][Proc: 0]p: copy_x_back: 5.494 [ms]
[OGL LOG][lduLduBase.H:330] 
Statistics:
	Time per iteration: 4397 [mu s]
	Time per residual norm calculation: 1291.000000 [mu s]
	Time per iteration and DOF: 0.174287 [ns]
	Retrieve results bandwidth 2.753000 [GByte/s]
[OGL LOG][Proc: 0]p: solve_multi_gpu: 3649.089 [ms]
BJcudaGKOCG:  Solving for p, Initial residual = 0.1651393346523707, Final residual = 0.001482757489222528, No Iterations 826
time step continuity errors : sum local = 0.0185133021612043, global = 0.0003849226621409087, cumulative = -0.005531156625923208
[OGL LOG][Proc: 0]: global_index_init: 0.028 [ms]
[OGL LOG][Proc: 0]nuTilda_local_coeffs: call_update: 0 [ms]
[OGL LOG][Proc: 0]nuTilda_non_local_coeffs: call_update: 0 [ms]
[OGL LOG][Proc: 0]nuTilda: update_local_matrix_data: 99.979 [ms]
[OGL LOG][Proc: 0]nuTilda: update_non_local_matrix_data: 1.114 [ms]
[OGL LOG][Proc: 0]nuTilda_matrix: call_update: 3.131 [ms]
[OGL LOG][Proc: 0]nuTilda_rhs: call_update: 2.313 [ms]
[OGL LOG][Preconditioner.H:121] Generate preconditioner BJ MaxBlockSize 1
[OGL LOG][Proc: 0]nuTilda: init_precond: 2.139 [ms]
[OGL LOG][StoppingCriterion.H:239] Creating stopping criterion with minIter 2 frequency 1
[OGL LOG][Proc: 0]nuTilda: generate_solver: 0.026 [ms]
[OGL LOG][Proc: 0]nuTilda: solve: 106.126 [ms]
[OGL LOG][Proc: 0]nuTilda: copy_x_back: 5.262 [ms]
[OGL LOG][lduLduBase.H:330] 
Statistics:
	Time per iteration: 53063 [mu s]
	Time per residual norm calculation: 1619.000000 [mu s]
	Time per iteration and DOF: 2.103292 [ns]
	Retrieve results bandwidth 2.875000 [GByte/s]
[OGL LOG][Proc: 0]nuTilda: solve_multi_gpu: 124.132 [ms]
BJcudaGKOBiCGStab:  Solving for nuTilda, Initial residual = 0.04975634571544994, Final residual = 0.002933270959980622, No Iterations 2
ExecutionTime = 490.44 s  ClockTime = 493 s

Time = 8

velocityDampingConstraint velocityDamping damped 2054 (0.01%) of cells, with max limit 300
[OGL LOG][Proc: 0]: global_index_init: 0.515 [ms]
[OGL LOG][Proc: 0]Ux_local_coeffs: call_update: 0 [ms]
[OGL LOG][Proc: 0]Ux_non_local_coeffs: call_update: 0 [ms]
[OGL LOG][Proc: 0]Ux: update_local_matrix_data: 98.896 [ms]
[OGL LOG][Proc: 0]Ux: update_non_local_matrix_data: 1.053 [ms]
[OGL LOG][Proc: 0]Ux_matrix: call_update: 2.893 [ms]
[OGL LOG][Proc: 0]Ux_rhs: call_update: 2.523 [ms]
[OGL LOG][Preconditioner.H:121] Generate preconditioner BJ MaxBlockSize 1
[OGL LOG][Proc: 0]Ux: init_precond: 2.135 [ms]
[OGL LOG][StoppingCriterion.H:239] Creating stopping criterion with minIter 3 frequency 1
[OGL LOG][Proc: 0]Ux: generate_solver: 0.015 [ms]
[OGL LOG][Proc: 0]Ux: solve: 121.409 [ms]
[OGL LOG][Proc: 0]Ux: copy_x_back: 5.523 [ms]
[OGL LOG][lduLduBase.H:330] 
Statistics:
	Time per iteration: 40469 [mu s]
	Time per residual norm calculation: 1620.000000 [mu s]
	Time per iteration and DOF: 1.604096 [ns]
	Retrieve results bandwidth 2.739000 [GByte/s]
[OGL LOG][Proc: 0]Ux: solve_multi_gpu: 145.518 [ms]
BJcudaGKOBiCGStab:  Solving for Ux, Initial residual = 0.192619243336142, Final residual = 0.01545373593130067, No Iterations 3
[OGL LOG][Proc: 0]: global_index_init: 0.395 [ms]
[OGL LOG][Proc: 0]Uy_local_coeffs: call_update: 0 [ms]
[OGL LOG][Proc: 0]Uy_non_local_coeffs: call_update: 0 [ms]
[OGL LOG][Proc: 0]Uy: update_local_matrix_data: 97.426 [ms]
[OGL LOG][Proc: 0]Uy: update_non_local_matrix_data: 1.126 [ms]
[OGL LOG][Proc: 0]Uy_matrix: call_update: 3.442 [ms]
[OGL LOG][Proc: 0]Uy_rhs: call_update: 4.559 [ms]
[OGL LOG][Preconditioner.H:121] Generate preconditioner BJ MaxBlockSize 1
[OGL LOG][Proc: 0]Uy: init_precond: 1.723 [ms]
[OGL LOG][StoppingCriterion.H:239] Creating stopping criterion with minIter 4 frequency 1
[OGL LOG][Proc: 0]Uy: generate_solver: 0.014 [ms]
[OGL LOG][Proc: 0]Uy: solve: 117.513 [ms]
[OGL LOG][Proc: 0]Uy: copy_x_back: 5.604 [ms]
[OGL LOG][lduLduBase.H:330] 
Statistics:
	Time per iteration: 39171 [mu s]
	Time per residual norm calculation: 1552.000000 [mu s]
	Time per iteration and DOF: 1.552646 [ns]
	Retrieve results bandwidth 2.699000 [GByte/s]
[OGL LOG][Proc: 0]Uy: solve_multi_gpu: 141.208 [ms]
BJcudaGKOBiCGStab:  Solving for Uy, Initial residual = 0.2494391483121919, Final residual = 0.02143828261683927, No Iterations 3
[OGL LOG][Proc: 0]: global_index_init: 0.542 [ms]
[OGL LOG][Proc: 0]Uz_local_coeffs: call_update: 0 [ms]
[OGL LOG][Proc: 0]Uz_non_local_coeffs: call_update: 0 [ms]
[OGL LOG][Proc: 0]Uz: update_local_matrix_data: 102.113 [ms]
[OGL LOG][Proc: 0]Uz: update_non_local_matrix_data: 1.078 [ms]
[OGL LOG][Proc: 0]Uz_matrix: call_update: 3.328 [ms]
[OGL LOG][Proc: 0]Uz_rhs: call_update: 2.267 [ms]
[OGL LOG][Preconditioner.H:121] Generate preconditioner BJ MaxBlockSize 1
[OGL LOG][Proc: 0]Uz: init_precond: 1.616 [ms]
[OGL LOG][StoppingCriterion.H:239] Creating stopping criterion with minIter 4 frequency 1
[OGL LOG][Proc: 0]Uz: generate_solver: 0.018 [ms]
[OGL LOG][Proc: 0]Uz: solve: 105.035 [ms]
[OGL LOG][Proc: 0]Uz: copy_x_back: 5.567 [ms]
[OGL LOG][lduLduBase.H:330] 
Statistics:
	Time per iteration: 35011 [mu s]
	Time per residual norm calculation: 1582.000000 [mu s]
	Time per iteration and DOF: 1.387753 [ns]
	Retrieve results bandwidth 2.717000 [GByte/s]
[OGL LOG][Proc: 0]Uz: solve_multi_gpu: 123.083 [ms]
BJcudaGKOBiCGStab:  Solving for Uz, Initial residual = 0.2363206739181347, Final residual = 0.02167690438480843, No Iterations 3
[OGL LOG][Proc: 0]: global_index_init: 0.021 [ms]
[OGL LOG][Proc: 0]p_local_coeffs: call_update: 0 [ms]
[OGL LOG][Proc: 0]p_non_local_coeffs: call_update: 0 [ms]
[OGL LOG][Proc: 0]p: update_local_matrix_data: 69.893 [ms]
[OGL LOG][Proc: 0]p: update_non_local_matrix_data: 1.225 [ms]
[OGL LOG][Proc: 0]p_matrix: call_update: 3.075 [ms]
[OGL LOG][Proc: 0]p_rhs: call_update: 2.319 [ms]
[OGL LOG][Preconditioner.H:121] Generate preconditioner BJ MaxBlockSize 1
[OGL LOG][Proc: 0]p: init_precond: 2.17 [ms]
[OGL LOG][StoppingCriterion.H:239] Creating stopping criterion with minIter 495 frequency 10
[OGL LOG][Proc: 0]p: generate_solver: 0.018 [ms]
[OGL LOG][Proc: 0]p: solve: 3662.591 [ms]
[OGL LOG][Proc: 0]p: copy_x_back: 5.619 [ms]
[OGL LOG][lduLduBase.H:330] 
Statistics:
	Time per iteration: 4065 [mu s]
	Time per residual norm calculation: 1303.000000 [mu s]
	Time per iteration and DOF: 0.161127 [ns]
	Retrieve results bandwidth 2.692000 [GByte/s]
[OGL LOG][Proc: 0]p: solve_multi_gpu: 3688.537 [ms]
BJcudaGKOCG:  Solving for p, Initial residual = 0.2779767001674757, Final residual = 0.002604638538191827, No Iterations 901
time step continuity errors : sum local = 0.01911407264827679, global = 0.0003965580160918846, cumulative = -0.005134598609831323
[OGL LOG][Proc: 0]: global_index_init: 0.024 [ms]
[OGL LOG][Proc: 0]nuTilda_local_coeffs: call_update: 0 [ms]
[OGL LOG][Proc: 0]nuTilda_non_local_coeffs: call_update: 0 [ms]
[OGL LOG][Proc: 0]nuTilda: update_local_matrix_data: 91.34099999999999 [ms]
[OGL LOG][Proc: 0]nuTilda: update_non_local_matrix_data: 1.196 [ms]
[OGL LOG][Proc: 0]nuTilda_matrix: call_update: 3.237 [ms]
[OGL LOG][Proc: 0]nuTilda_rhs: call_update: 2.039 [ms]
[OGL LOG][Preconditioner.H:121] Generate preconditioner BJ MaxBlockSize 1
[OGL LOG][Proc: 0]nuTilda: init_precond: 1.737 [ms]
[OGL LOG][StoppingCriterion.H:239] Creating stopping criterion with minIter 3 frequency 1
[OGL LOG][Proc: 0]nuTilda: generate_solver: 0.014 [ms]
[OGL LOG][Proc: 0]nuTilda: solve: 104.896 [ms]
[OGL LOG][Proc: 0]nuTilda: copy_x_back: 5.467 [ms]
[OGL LOG][lduLduBase.H:330] 
Statistics:
	Time per iteration: 52448 [mu s]
	Time per residual norm calculation: 1621.000000 [mu s]
	Time per iteration and DOF: 2.078915 [ns]
	Retrieve results bandwidth 2.767000 [GByte/s]
[OGL LOG][Proc: 0]nuTilda: solve_multi_gpu: 131.227 [ms]
BJcudaGKOBiCGStab:  Solving for nuTilda, Initial residual = 0.03953786317381829, Final residual = 0.002002774672932047, No Iterations 2
ExecutionTime = 502.37 s  ClockTime = 505 s

Time = 9

velocityDampingConstraint velocityDamping damped 238 (0%) of cells, with max limit 300
[OGL LOG][Proc: 0]: global_index_init: 0.405 [ms]
[OGL LOG][Proc: 0]Ux_local_coeffs: call_update: 0 [ms]
[OGL LOG][Proc: 0]Ux_non_local_coeffs: call_update: 0 [ms]
[OGL LOG][Proc: 0]Ux: update_local_matrix_data: 102.873 [ms]
[OGL LOG][Proc: 0]Ux: update_non_local_matrix_data: 1.242 [ms]
[OGL LOG][Proc: 0]Ux_matrix: call_update: 3.469 [ms]
[OGL LOG][Proc: 0]Ux_rhs: call_update: 2.043 [ms]
[OGL LOG][Preconditioner.H:121] Generate preconditioner BJ MaxBlockSize 1
[OGL LOG][Proc: 0]Ux: init_precond: 2.129 [ms]
[OGL LOG][StoppingCriterion.H:239] Creating stopping criterion with minIter 4 frequency 1
[OGL LOG][Proc: 0]Ux: generate_solver: 0.018 [ms]
[OGL LOG][Proc: 0]Ux: solve: 110.074 [ms]
[OGL LOG][Proc: 0]Ux: copy_x_back: 5.618 [ms]
[OGL LOG][lduLduBase.H:330] 
Statistics:
	Time per iteration: 36691 [mu s]
	Time per residual norm calculation: 1666.000000 [mu s]
	Time per iteration and DOF: 1.454345 [ns]
	Retrieve results bandwidth 2.692000 [GByte/s]
[OGL LOG][Proc: 0]Ux: solve_multi_gpu: 129.347 [ms]
BJcudaGKOBiCGStab:  Solving for Ux, Initial residual = 0.07215977564412002, Final residual = 0.005769428855318101, No Iterations 3
[OGL LOG][Proc: 0]: global_index_init: 2.18 [ms]
[OGL LOG][Proc: 0]Uy_local_coeffs: call_update: 0 [ms]
[OGL LOG][Proc: 0]Uy_non_local_coeffs: call_update: 0 [ms]
[OGL LOG][Proc: 0]Uy: update_local_matrix_data: 100.158 [ms]
[OGL LOG][Proc: 0]Uy: update_non_local_matrix_data: 1.206 [ms]
[OGL LOG][Proc: 0]Uy_matrix: call_update: 3.271 [ms]
[OGL LOG][Proc: 0]Uy_rhs: call_update: 2.144 [ms]
[OGL LOG][Preconditioner.H:121] Generate preconditioner BJ MaxBlockSize 1
[OGL LOG][Proc: 0]Uy: init_precond: 2.133 [ms]
[OGL LOG][StoppingCriterion.H:239] Creating stopping criterion with minIter 4 frequency 1
[OGL LOG][Proc: 0]Uy: generate_solver: 0.017 [ms]
[OGL LOG][Proc: 0]Uy: solve: 132.177 [ms]
[OGL LOG][Proc: 0]Uy: copy_x_back: 5.869 [ms]
[OGL LOG][lduLduBase.H:330] 
Statistics:
	Time per iteration: 26435 [mu s]
	Time per residual norm calculation: 1547.000000 [mu s]
	Time per iteration and DOF: 1.047821 [ns]
	Retrieve results bandwidth 2.577000 [GByte/s]
[OGL LOG][Proc: 0]Uy: solve_multi_gpu: 153.44 [ms]
BJcudaGKOBiCGStab:  Solving for Uy, Initial residual = 0.1042184859091182, Final residual = 0.002496489943123435, No Iterations 5
[OGL LOG][Proc: 0]: global_index_init: 0.39 [ms]
[OGL LOG][Proc: 0]Uz_local_coeffs: call_update: 0 [ms]
[OGL LOG][Proc: 0]Uz_non_local_coeffs: call_update: 0 [ms]
[OGL LOG][Proc: 0]Uz: update_local_matrix_data: 99.88 [ms]
[OGL LOG][Proc: 0]Uz: update_non_local_matrix_data: 1.14 [ms]
[OGL LOG][Proc: 0]Uz_matrix: call_update: 3.259 [ms]
[OGL LOG][Proc: 0]Uz_rhs: call_update: 2.183 [ms]
[OGL LOG][Preconditioner.H:121] Generate preconditioner BJ MaxBlockSize 1
[OGL LOG][Proc: 0]Uz: init_precond: 1.746 [ms]
[OGL LOG][StoppingCriterion.H:239] Creating stopping criterion with minIter 3 frequency 1
[OGL LOG][Proc: 0]Uz: generate_solver: 0.015 [ms]
[OGL LOG][Proc: 0]Uz: solve: 115.674 [ms]
[OGL LOG][Proc: 0]Uz: copy_x_back: 5.579 [ms]
[OGL LOG][lduLduBase.H:330] 
Statistics:
	Time per iteration: 28918 [mu s]
	Time per residual norm calculation: 1553.000000 [mu s]
	Time per iteration and DOF: 1.146241 [ns]
	Retrieve results bandwidth 2.711000 [GByte/s]
[OGL LOG][Proc: 0]Uz: solve_multi_gpu: 134.978 [ms]
BJcudaGKOBiCGStab:  Solving for Uz, Initial residual = 0.1008344252676793, Final residual = 0.004997719379762055, No Iterations 4
[OGL LOG][Proc: 0]: global_index_init: 0.065 [ms]
[OGL LOG][Proc: 0]p_local_coeffs: call_update: 0 [ms]
[OGL LOG][Proc: 0]p_non_local_coeffs: call_update: 0 [ms]
[OGL LOG][Proc: 0]p: update_local_matrix_data: 79.033 [ms]
[OGL LOG][Proc: 0]p: update_non_local_matrix_data: 1.171 [ms]
[OGL LOG][Proc: 0]p_matrix: call_update: 3.275 [ms]
[OGL LOG][Proc: 0]p_rhs: call_update: 1.956 [ms]
[OGL LOG][Preconditioner.H:121] Generate preconditioner BJ MaxBlockSize 1
[OGL LOG][Proc: 0]p: init_precond: 1.715 [ms]
[OGL LOG][StoppingCriterion.H:239] Creating stopping criterion with minIter 540 frequency 10
[OGL LOG][Proc: 0]p: generate_solver: 0.015 [ms]
[OGL LOG][Proc: 0]p: solve: 3691.87 [ms]
[OGL LOG][Proc: 0]p: copy_x_back: 5.69 [ms]
[OGL LOG][lduLduBase.H:330] 
Statistics:
	Time per iteration: 4052 [mu s]
	Time per residual norm calculation: 1282.000000 [mu s]
	Time per iteration and DOF: 0.160612 [ns]
	Retrieve results bandwidth 2.658000 [GByte/s]
[OGL LOG][Proc: 0]p: solve_multi_gpu: 3708.235 [ms]
BJcudaGKOCG:  Solving for p, Initial residual = 0.4895765673986762, Final residual = 0.004155476702077118, No Iterations 911
time step continuity errors : sum local = 0.01783993760025117, global = 0.0004814231710663372, cumulative = -0.004653175438764986
[OGL LOG][Proc: 0]: global_index_init: 0.023 [ms]
[OGL LOG][Proc: 0]nuTilda_local_coeffs: call_update: 0 [ms]
[OGL LOG][Proc: 0]nuTilda_non_local_coeffs: call_update: 0 [ms]
[OGL LOG][Proc: 0]nuTilda: update_local_matrix_data: 100.34 [ms]
[OGL LOG][Proc: 0]nuTilda: update_non_local_matrix_data: 1.068 [ms]
[OGL LOG][Proc: 0]nuTilda_matrix: call_update: 3.418 [ms]
[OGL LOG][Proc: 0]nuTilda_rhs: call_update: 2.149 [ms]
[OGL LOG][Preconditioner.H:121] Generate preconditioner BJ MaxBlockSize 1
[OGL LOG][Proc: 0]nuTilda: init_precond: 1.736 [ms]
[OGL LOG][StoppingCriterion.H:239] Creating stopping criterion with minIter 3 frequency 1
[OGL LOG][Proc: 0]nuTilda: generate_solver: 0.014 [ms]
[OGL LOG][Proc: 0]nuTilda: solve: 104.583 [ms]
[OGL LOG][Proc: 0]nuTilda: copy_x_back: 5.31 [ms]
[OGL LOG][lduLduBase.H:330] 
Statistics:
	Time per iteration: 52291 [mu s]
	Time per residual norm calculation: 1621.000000 [mu s]
	Time per iteration and DOF: 2.072692 [ns]
	Retrieve results bandwidth 2.849000 [GByte/s]
[OGL LOG][Proc: 0]nuTilda: solve_multi_gpu: 121.359 [ms]
BJcudaGKOBiCGStab:  Solving for nuTilda, Initial residual = 0.03423807074410052, Final residual = 0.001939276242356001, No Iterations 2
ExecutionTime = 514.25 s  ClockTime = 517 s

Time = 10

velocityDampingConstraint velocityDamping damped 419 (0%) of cells, with max limit 300
[OGL LOG][Proc: 0]: global_index_init: 0.441 [ms]
[OGL LOG][Proc: 0]Ux_local_coeffs: call_update: 0 [ms]
[OGL LOG][Proc: 0]Ux_non_local_coeffs: call_update: 0 [ms]
[OGL LOG][Proc: 0]Ux: update_local_matrix_data: 99.78400000000001 [ms]
[OGL LOG][Proc: 0]Ux: update_non_local_matrix_data: 1.119 [ms]
[OGL LOG][Proc: 0]Ux_matrix: call_update: 3.571 [ms]
[OGL LOG][Proc: 0]Ux_rhs: call_update: 2.152 [ms]
[OGL LOG][Preconditioner.H:121] Generate preconditioner BJ MaxBlockSize 1
[OGL LOG][Proc: 0]Ux: init_precond: 1.677 [ms]
[OGL LOG][StoppingCriterion.H:239] Creating stopping criterion with minIter 3 frequency 1
[OGL LOG][Proc: 0]Ux: generate_solver: 0.014 [ms]
[OGL LOG][Proc: 0]Ux: solve: 124.945 [ms]
[OGL LOG][Proc: 0]Ux: copy_x_back: 5.613 [ms]
[OGL LOG][lduLduBase.H:330] 
Statistics:
	Time per iteration: 31236 [mu s]
	Time per residual norm calculation: 1672.000000 [mu s]
	Time per iteration and DOF: 1.238121 [ns]
	Retrieve results bandwidth 2.695000 [GByte/s]
[OGL LOG][Proc: 0]Ux: solve_multi_gpu: 145.487 [ms]
BJcudaGKOBiCGStab:  Solving for Ux, Initial residual = 0.03891082563326479, Final residual = 0.002011322618358567, No Iterations 4
[OGL LOG][Proc: 0]: global_index_init: 0.055 [ms]
[OGL LOG][Proc: 0]Uy_local_coeffs: call_update: 0 [ms]
[OGL LOG][Proc: 0]Uy_non_local_coeffs: call_update: 0 [ms]
[OGL LOG][Proc: 0]Uy: update_local_matrix_data: 101.619 [ms]
[OGL LOG][Proc: 0]Uy: update_non_local_matrix_data: 1.109 [ms]
[OGL LOG][Proc: 0]Uy_matrix: call_update: 3.178 [ms]
[OGL LOG][Proc: 0]Uy_rhs: call_update: 2.405 [ms]
[OGL LOG][Preconditioner.H:121] Generate preconditioner BJ MaxBlockSize 1
[OGL LOG][Proc: 0]Uy: init_precond: 1.668 [ms]
[OGL LOG][StoppingCriterion.H:239] Creating stopping criterion with minIter 6 frequency 1
[OGL LOG][Proc: 0]Uy: generate_solver: 0.015 [ms]
[OGL LOG][Proc: 0]Uy: solve: 110.53 [ms]
[OGL LOG][Proc: 0]Uy: copy_x_back: 5.559 [ms]
[OGL LOG][lduLduBase.H:330] 
Statistics:
	Time per iteration: 27632 [mu s]
	Time per residual norm calculation: 1561.000000 [mu s]
	Time per iteration and DOF: 1.095267 [ns]
	Retrieve results bandwidth 2.721000 [GByte/s]
[OGL LOG][Proc: 0]Uy: solve_multi_gpu: 127.375 [ms]
BJcudaGKOBiCGStab:  Solving for Uy, Initial residual = 0.1308986373313878, Final residual = 0.01255014236347283, No Iterations 4
[OGL LOG][Proc: 0]: global_index_init: 0.361 [ms]
[OGL LOG][Proc: 0]Uz_local_coeffs: call_update: 0 [ms]
[OGL LOG][Proc: 0]Uz_non_local_coeffs: call_update: 0 [ms]
[OGL LOG][Proc: 0]Uz: update_local_matrix_data: 101.507 [ms]
[OGL LOG][Proc: 0]Uz: update_non_local_matrix_data: 1.064 [ms]
[OGL LOG][Proc: 0]Uz_matrix: call_update: 3.29 [ms]
[OGL LOG][Proc: 0]Uz_rhs: call_update: 2.015 [ms]
[OGL LOG][Preconditioner.H:121] Generate preconditioner BJ MaxBlockSize 1
[OGL LOG][Proc: 0]Uz: init_precond: 1.743 [ms]
[OGL LOG][StoppingCriterion.H:239] Creating stopping criterion with minIter 4 frequency 1
[OGL LOG][Proc: 0]Uz: generate_solver: 0.015 [ms]
[OGL LOG][Proc: 0]Uz: solve: 148.24 [ms]
[OGL LOG][Proc: 0]Uz: copy_x_back: 5.689 [ms]
[OGL LOG][lduLduBase.H:330] 
Statistics:
	Time per iteration: 37060 [mu s]
	Time per residual norm calculation: 1211.000000 [mu s]
	Time per iteration and DOF: 1.468971 [ns]
	Retrieve results bandwidth 2.659000 [GByte/s]
[OGL LOG][Proc: 0]Uz: solve_multi_gpu: 165.814 [ms]
BJcudaGKOBiCGStab:  Solving for Uz, Initial residual = 0.09644234655817015, Final residual = 0.004493986148282369, No Iterations 4
[OGL LOG][Proc: 0]: global_index_init: 2.447 [ms]
[OGL LOG][Proc: 0]p_local_coeffs: call_update: 0 [ms]
[OGL LOG][Proc: 0]p_non_local_coeffs: call_update: 0 [ms]
[OGL LOG][Proc: 0]p: update_local_matrix_data: 77.685 [ms]
[OGL LOG][Proc: 0]p: update_non_local_matrix_data: 1.126 [ms]
[OGL LOG][Proc: 0]p_matrix: call_update: 3.488 [ms]
[OGL LOG][Proc: 0]p_rhs: call_update: 2.077 [ms]
[OGL LOG][Preconditioner.H:121] Generate preconditioner BJ MaxBlockSize 1
[OGL LOG][Proc: 0]p: init_precond: 1.663 [ms]
[OGL LOG][StoppingCriterion.H:239] Creating stopping criterion with minIter 546 frequency 11
[OGL LOG][Proc: 0]p: generate_solver: 0.015 [ms]
[OGL LOG][Proc: 0]p: solve: 2248.546 [ms]
[OGL LOG][Proc: 0]p: copy_x_back: 5.558 [ms]
[OGL LOG][lduLduBase.H:330] 
Statistics:
	Time per iteration: 4080 [mu s]
	Time per residual norm calculation: 1286.000000 [mu s]
	Time per iteration and DOF: 0.161722 [ns]
	Retrieve results bandwidth 2.722000 [GByte/s]
[OGL LOG][Proc: 0]p: solve_multi_gpu: 2264.271 [ms]
BJcudaGKOCG:  Solving for p, Initial residual = 0.2557624970661916, Final residual = 0.001487607331564708, No Iterations 551
time step continuity errors : sum local = 0.01041151399460122, global = -0.0002348183048025478, cumulative = -0.004887993743567534
[OGL LOG][Proc: 0]: global_index_init: 0.023 [ms]
[OGL LOG][Proc: 0]nuTilda_local_coeffs: call_update: 0 [ms]
[OGL LOG][Proc: 0]nuTilda_non_local_coeffs: call_update: 0 [ms]
[OGL LOG][Proc: 0]nuTilda: update_local_matrix_data: 100.2 [ms]
[OGL LOG][Proc: 0]nuTilda: update_non_local_matrix_data: 1.124 [ms]
[OGL LOG][Proc: 0]nuTilda_matrix: call_update: 3.4 [ms]
[OGL LOG][Proc: 0]nuTilda_rhs: call_update: 2.009 [ms]
[OGL LOG][Preconditioner.H:121] Generate preconditioner BJ MaxBlockSize 1
[OGL LOG][Proc: 0]nuTilda: init_precond: 1.793 [ms]
[OGL LOG][StoppingCriterion.H:239] Creating stopping criterion with minIter 3 frequency 1
[OGL LOG][Proc: 0]nuTilda: generate_solver: 0.014 [ms]
[OGL LOG][Proc: 0]nuTilda: solve: 105.639 [ms]
[OGL LOG][Proc: 0]nuTilda: copy_x_back: 5.362 [ms]
[OGL LOG][lduLduBase.H:330] 
Statistics:
	Time per iteration: 52819 [mu s]
	Time per residual norm calculation: 1628.000000 [mu s]
	Time per iteration and DOF: 2.093621 [ns]
	Retrieve results bandwidth 2.821000 [GByte/s]
[OGL LOG][Proc: 0]nuTilda: solve_multi_gpu: 122.426 [ms]
BJcudaGKOBiCGStab:  Solving for nuTilda, Initial residual = 0.02890622905652617, Final residual = 0.001547741970218708, No Iterations 2
ExecutionTime = 524.72 s  ClockTime = 527 s

Time = 11

velocityDampingConstraint velocityDamping damped 424 (0%) of cells, with max limit 300
[OGL LOG][Proc: 0]: global_index_init: 0.121 [ms]
[OGL LOG][Proc: 0]Ux_local_coeffs: call_update: 0 [ms]
[OGL LOG][Proc: 0]Ux_non_local_coeffs: call_update: 0 [ms]
[OGL LOG][Proc: 0]Ux: update_local_matrix_data: 100.558 [ms]
[OGL LOG][Proc: 0]Ux: update_non_local_matrix_data: 1.093 [ms]
[OGL LOG][Proc: 0]Ux_matrix: call_update: 3.464 [ms]
[OGL LOG][Proc: 0]Ux_rhs: call_update: 2.052 [ms]
[OGL LOG][Preconditioner.H:121] Generate preconditioner BJ MaxBlockSize 1
[OGL LOG][Proc: 0]Ux: init_precond: 1.669 [ms]
[OGL LOG][StoppingCriterion.H:239] Creating stopping criterion with minIter 4 frequency 1
[OGL LOG][Proc: 0]Ux: generate_solver: 0.015 [ms]
[OGL LOG][Proc: 0]Ux: solve: 126.201 [ms]
[OGL LOG][Proc: 0]Ux: copy_x_back: 5.618 [ms]
[OGL LOG][lduLduBase.H:330] 
Statistics:
	Time per iteration: 31550 [mu s]
	Time per residual norm calculation: 1871.000000 [mu s]
	Time per iteration and DOF: 1.250568 [ns]
	Retrieve results bandwidth 2.692000 [GByte/s]
[OGL LOG][Proc: 0]Ux: solve_multi_gpu: 149.554 [ms]
BJcudaGKOBiCGStab:  Solving for Ux, Initial residual = 0.0548395536957855, Final residual = 0.00210411614192036, No Iterations 4
[OGL LOG][Proc: 0]: global_index_init: 0.396 [ms]
[OGL LOG][Proc: 0]Uy_local_coeffs: call_update: 0 [ms]
[OGL LOG][Proc: 0]Uy_non_local_coeffs: call_update: 0 [ms]
[OGL LOG][Proc: 0]Uy: update_local_matrix_data: 95.49299999999999 [ms]
[OGL LOG][Proc: 0]Uy: update_non_local_matrix_data: 1.045 [ms]
[OGL LOG][Proc: 0]Uy_matrix: call_update: 3.647 [ms]
[OGL LOG][Proc: 0]Uy_rhs: call_update: 1.852 [ms]
[OGL LOG][Preconditioner.H:121] Generate preconditioner BJ MaxBlockSize 1
[OGL LOG][Proc: 0]Uy: init_precond: 1.699 [ms]
[OGL LOG][StoppingCriterion.H:239] Creating stopping criterion with minIter 4 frequency 1
[OGL LOG][Proc: 0]Uy: generate_solver: 0.023 [ms]
[OGL LOG][Proc: 0]Uy: solve: 125.878 [ms]
[OGL LOG][Proc: 0]Uy: copy_x_back: 5.942 [ms]
[OGL LOG][lduLduBase.H:330] 
Statistics:
	Time per iteration: 31469 [mu s]
	Time per residual norm calculation: 1664.000000 [mu s]
	Time per iteration and DOF: 1.247357 [ns]
	Retrieve results bandwidth 2.546000 [GByte/s]
[OGL LOG][Proc: 0]Uy: solve_multi_gpu: 151.106 [ms]
[...]
[OGL LOG][lduLduBase.H:330] 
Statistics:
	Time per iteration: 4276 [mu s]
	Time per residual norm calculation: 1289.000000 [mu s]
	Time per iteration and DOF: 0.169491 [ns]
	Retrieve results bandwidth 2.634000 [GByte/s]
[OGL LOG][Proc: 0]p: solve_multi_gpu: 2778.238 [ms]
BJcudaGKOCG:  Solving for p, Initial residual = 0.09044629442112304, Final residual = 0.0008935622178640339, No Iterations 646
time step continuity errors : sum local = 0.0007255408108547104, global = 1.751585117489524e-05, cumulative = -0.006896293728030386
[OGL LOG][Proc: 0]: global_index_init: 0.024 [ms]
[OGL LOG][Proc: 0]nuTilda_local_coeffs: call_update: 0 [ms]
[OGL LOG][Proc: 0]nuTilda_non_local_coeffs: call_update: 0 [ms]
[OGL LOG][Proc: 0]nuTilda: update_local_matrix_data: 91.672 [ms]
[OGL LOG][Proc: 0]nuTilda: update_non_local_matrix_data: 1.157 [ms]
[OGL LOG][Proc: 0]nuTilda_matrix: call_update: 3.276 [ms]
[OGL LOG][Proc: 0]nuTilda_rhs: call_update: 2.035 [ms]
[OGL LOG][Preconditioner.H:121] Generate preconditioner BJ MaxBlockSize 1
[OGL LOG][Proc: 0]nuTilda: init_precond: 2.043 [ms]
[OGL LOG][StoppingCriterion.H:239] Creating stopping criterion with minIter 3 frequency 1
[OGL LOG][Proc: 0]nuTilda: generate_solver: 0.018 [ms]
[OGL LOG][Proc: 0]nuTilda: solve: 103.715 [ms]
[OGL LOG][Proc: 0]nuTilda: copy_x_back: 5.349 [ms]
[OGL LOG][lduLduBase.H:330] 
Statistics:
	Time per iteration: 51857 [mu s]
	Time per residual norm calculation: 1631.000000 [mu s]
	Time per iteration and DOF: 2.055489 [ns]
	Retrieve results bandwidth 2.828000 [GByte/s]
[OGL LOG][Proc: 0]nuTilda: solve_multi_gpu: 127.748 [ms]
BJcudaGKOBiCGStab:  Solving for nuTilda, Initial residual = 0.007708762758457142, Final residual = 0.000547626562015397, No Iterations 2
ExecutionTime = 1429.67 s  ClockTime = 1435 s

Time = 98

velocityDampingConstraint velocityDamping damped 0 (0%) of cells, with max limit 300
[OGL LOG][Proc: 0]: global_index_init: 0.451 [ms]
[OGL LOG][Proc: 0]Ux_local_coeffs: call_update: 0 [ms]
[OGL LOG][Proc: 0]Ux_non_local_coeffs: call_update: 0 [ms]
[OGL LOG][Proc: 0]Ux: update_local_matrix_data: 101.545 [ms]
[OGL LOG][Proc: 0]Ux: update_non_local_matrix_data: 1.113 [ms]
[OGL LOG][Proc: 0]Ux_matrix: call_update: 3.502 [ms]
[OGL LOG][Proc: 0]Ux_rhs: call_update: 2.545 [ms]
[OGL LOG][Preconditioner.H:121] Generate preconditioner BJ MaxBlockSize 1
[OGL LOG][Proc: 0]Ux: init_precond: 1.701 [ms]
[OGL LOG][StoppingCriterion.H:239] Creating stopping criterion with minIter 4 frequency 1
[OGL LOG][Proc: 0]Ux: generate_solver: 0.014 [ms]
[OGL LOG][Proc: 0]Ux: solve: 124.925 [ms]
[OGL LOG][Proc: 0]Ux: copy_x_back: 5.546 [ms]
[OGL LOG][lduLduBase.H:330] 
Statistics:
	Time per iteration: 31231 [mu s]
	Time per residual norm calculation: 1677.000000 [mu s]
	Time per iteration and DOF: 1.237923 [ns]
	Retrieve results bandwidth 2.727000 [GByte/s]
[OGL LOG][Proc: 0]Ux: solve_multi_gpu: 146.7 [ms]
BJcudaGKOBiCGStab:  Solving for Ux, Initial residual = 0.002870235745834296, Final residual = 0.00010315681950269, No Iterations 4
[OGL LOG][Proc: 0]: global_index_init: 0.259 [ms]
[OGL LOG][Proc: 0]Uy_local_coeffs: call_update: 0 [ms]
[OGL LOG][Proc: 0]Uy_non_local_coeffs: call_update: 0 [ms]
[OGL LOG][Proc: 0]Uy: update_local_matrix_data: 97.91500000000001 [ms]
[OGL LOG][Proc: 0]Uy: update_non_local_matrix_data: 1.14 [ms]
[OGL LOG][Proc: 0]Uy_matrix: call_update: 3.263 [ms]
[OGL LOG][Proc: 0]Uy_rhs: call_update: 1.989 [ms]
[OGL LOG][Preconditioner.H:121] Generate preconditioner BJ MaxBlockSize 1
[OGL LOG][Proc: 0]Uy: init_precond: 2.095 [ms]
[OGL LOG][StoppingCriterion.H:239] Creating stopping criterion with minIter 4 frequency 1
[OGL LOG][Proc: 0]Uy: generate_solver: 0.017 [ms]
[OGL LOG][Proc: 0]Uy: solve: 115.188 [ms]
[OGL LOG][Proc: 0]Uy: copy_x_back: 5.622 [ms]
[OGL LOG][lduLduBase.H:330] 
Statistics:
	Time per iteration: 28797 [mu s]
	Time per residual norm calculation: 1727.000000 [mu s]
	Time per iteration and DOF: 1.141445 [ns]
	Retrieve results bandwidth 2.691000 [GByte/s]
[OGL LOG][Proc: 0]Uy: solve_multi_gpu: 135.121 [ms]
BJcudaGKOBiCGStab:  Solving for Uy, Initial residual = 0.012691477946435, Final residual = 0.0006542012798319485, No Iterations 4
[OGL LOG][Proc: 0]: global_index_init: 0.395 [ms]
[OGL LOG][Proc: 0]Uz_local_coeffs: call_update: 0 [ms]
[OGL LOG][Proc: 0]Uz_non_local_coeffs: call_update: 0 [ms]
[OGL LOG][Proc: 0]Uz: update_local_matrix_data: 99.88200000000001 [ms]
[OGL LOG][Proc: 0]Uz: update_non_local_matrix_data: 1.107 [ms]
[OGL LOG][Proc: 0]Uz_matrix: call_update: 3.299 [ms]
[OGL LOG][Proc: 0]Uz_rhs: call_update: 2.091 [ms]
[OGL LOG][Preconditioner.H:121] Generate preconditioner BJ MaxBlockSize 1
[OGL LOG][Proc: 0]Uz: init_precond: 2.116 [ms]
[OGL LOG][StoppingCriterion.H:239] Creating stopping criterion with minIter 4 frequency 1
[OGL LOG][Proc: 0]Uz: generate_solver: 0.015 [ms]
[OGL LOG][Proc: 0]Uz: solve: 104.272 [ms]
[OGL LOG][Proc: 0]Uz: copy_x_back: 5.594 [ms]
[OGL LOG][lduLduBase.H:330] 
Statistics:
	Time per iteration: 34757 [mu s]
	Time per residual norm calculation: 1580.000000 [mu s]
	Time per iteration and DOF: 1.377686 [ns]
	Retrieve results bandwidth 2.704000 [GByte/s]
[OGL LOG][Proc: 0]Uz: solve_multi_gpu: 124.042 [ms]
BJcudaGKOBiCGStab:  Solving for Uz, Initial residual = 0.01557873596657482, Final residual = 0.001493243307801882, No Iterations 3
[OGL LOG][Proc: 0]: global_index_init: 0.019 [ms]
[OGL LOG][Proc: 0]p_local_coeffs: call_update: 0 [ms]
[OGL LOG][Proc: 0]p_non_local_coeffs: call_update: 0 [ms]
[OGL LOG][Proc: 0]p: update_local_matrix_data: 74.131 [ms]
[OGL LOG][Proc: 0]p: update_non_local_matrix_data: 1.129 [ms]
[OGL LOG][Proc: 0]p_matrix: call_update: 3.697 [ms]
[OGL LOG][Proc: 0]p_rhs: call_update: 1.921 [ms]
[OGL LOG][Preconditioner.H:121] Generate preconditioner BJ MaxBlockSize 1
[OGL LOG][Proc: 0]p: init_precond: 2.108 [ms]
[OGL LOG][StoppingCriterion.H:239] Creating stopping criterion with minIter 387 frequency 9
[OGL LOG][Proc: 0]p: generate_solver: 0.023 [ms]
[OGL LOG][Proc: 0]p: solve: 1609.027 [ms]
[OGL LOG][Proc: 0]p: copy_x_back: 5.686 [ms]
[OGL LOG][lduLduBase.H:330] 
Statistics:
	Time per iteration: 4146 [mu s]
	Time per residual norm calculation: 1298.000000 [mu s]
	Time per iteration and DOF: 0.164338 [ns]
	Retrieve results bandwidth 2.660000 [GByte/s]
[OGL LOG][Proc: 0]p: solve_multi_gpu: 1629.232 [ms]
BJcudaGKOCG:  Solving for p, Initial residual = 0.08229407786560212, Final residual = 0.0006858037702905835, No Iterations 388
time step continuity errors : sum local = 0.0004652048705824802, global = 6.253456311173665e-05, cumulative = -0.00683375916491865
[OGL LOG][Proc: 0]: global_index_init: 0.025 [ms]
[OGL LOG][Proc: 0]nuTilda_local_coeffs: call_update: 0 [ms]
[OGL LOG][Proc: 0]nuTilda_non_local_coeffs: call_update: 0 [ms]
[OGL LOG][Proc: 0]nuTilda: update_local_matrix_data: 99.70999999999999 [ms]
[OGL LOG][Proc: 0]nuTilda: update_non_local_matrix_data: 1.12 [ms]
[OGL LOG][Proc: 0]nuTilda_matrix: call_update: 3.183 [ms]
[OGL LOG][Proc: 0]nuTilda_rhs: call_update: 2.061 [ms]
[OGL LOG][Preconditioner.H:121] Generate preconditioner BJ MaxBlockSize 1
[OGL LOG][Proc: 0]nuTilda: init_precond: 1.724 [ms]
[OGL LOG][StoppingCriterion.H:239] Creating stopping criterion with minIter 3 frequency 1
[OGL LOG][Proc: 0]nuTilda: generate_solver: 0.022 [ms]
[OGL LOG][Proc: 0]nuTilda: solve: 103.605 [ms]
[OGL LOG][Proc: 0]nuTilda: copy_x_back: 5.393 [ms]
[OGL LOG][lduLduBase.H:330] 
Statistics:
	Time per iteration: 51802 [mu s]
	Time per residual norm calculation: 1453.000000 [mu s]
	Time per iteration and DOF: 2.053309 [ns]
	Retrieve results bandwidth 2.805000 [GByte/s]
[OGL LOG][Proc: 0]nuTilda: solve_multi_gpu: 120.352 [ms]
BJcudaGKOBiCGStab:  Solving for nuTilda, Initial residual = 0.006604528633089003, Final residual = 0.0004429003292122541, No Iterations 2
ExecutionTime = 1439.28 s  ClockTime = 1444 s

Time = 99

velocityDampingConstraint velocityDamping damped 0 (0%) of cells, with max limit 300
[OGL LOG][Proc: 0]: global_index_init: 0.111 [ms]
[OGL LOG][Proc: 0]Ux_local_coeffs: call_update: 0 [ms]
[OGL LOG][Proc: 0]Ux_non_local_coeffs: call_update: 0 [ms]
[OGL LOG][Proc: 0]Ux: update_local_matrix_data: 97.631 [ms]
[OGL LOG][Proc: 0]Ux: update_non_local_matrix_data: 1.118 [ms]
[OGL LOG][Proc: 0]Ux_matrix: call_update: 3.142 [ms]
[OGL LOG][Proc: 0]Ux_rhs: call_update: 2.49 [ms]
[OGL LOG][Preconditioner.H:121] Generate preconditioner BJ MaxBlockSize 1
[OGL LOG][Proc: 0]Ux: init_precond: 1.711 [ms]
[OGL LOG][StoppingCriterion.H:239] Creating stopping criterion with minIter 4 frequency 1
[OGL LOG][Proc: 0]Ux: generate_solver: 0.015 [ms]
[OGL LOG][Proc: 0]Ux: solve: 112.462 [ms]
[OGL LOG][Proc: 0]Ux: copy_x_back: 5.696 [ms]
[OGL LOG][lduLduBase.H:330] 
Statistics:
	Time per iteration: 37487 [mu s]
	Time per residual norm calculation: 1679.000000 [mu s]
	Time per iteration and DOF: 1.485896 [ns]
	Retrieve results bandwidth 2.656000 [GByte/s]
[OGL LOG][Proc: 0]Ux: solve_multi_gpu: 138.931 [ms]
BJcudaGKOBiCGStab:  Solving for Ux, Initial residual = 0.002928893505797026, Final residual = 0.0002794508674193642, No Iterations 3
[OGL LOG][Proc: 0]: global_index_init: 4.119 [ms]
[OGL LOG][Proc: 0]Uy_local_coeffs: call_update: 0 [ms]
[OGL LOG][Proc: 0]Uy_non_local_coeffs: call_update: 0 [ms]
[OGL LOG][Proc: 0]Uy: update_local_matrix_data: 92.968 [ms]
[OGL LOG][Proc: 0]Uy: update_non_local_matrix_data: 1.067 [ms]
[OGL LOG][Proc: 0]Uy_matrix: call_update: 3.026 [ms]
[OGL LOG][Proc: 0]Uy_rhs: call_update: 2.414 [ms]
[OGL LOG][Preconditioner.H:121] Generate preconditioner BJ MaxBlockSize 1
[OGL LOG][Proc: 0]Uy: init_precond: 2.383 [ms]
[OGL LOG][StoppingCriterion.H:239] Creating stopping criterion with minIter 4 frequency 1
[OGL LOG][Proc: 0]Uy: generate_solver: 0.016 [ms]
[OGL LOG][Proc: 0]Uy: solve: 116.338 [ms]
[OGL LOG][Proc: 0]Uy: copy_x_back: 5.74 [ms]
[OGL LOG][lduLduBase.H:330] 
Statistics:
	Time per iteration: 29084 [mu s]
	Time per residual norm calculation: 1598.000000 [mu s]
	Time per iteration and DOF: 1.152821 [ns]
	Retrieve results bandwidth 2.635000 [GByte/s]
[OGL LOG][Proc: 0]Uy: solve_multi_gpu: 144.064 [ms]
BJcudaGKOBiCGStab:  Solving for Uy, Initial residual = 0.0128661062333726, Final residual = 0.0006774811385096754, No Iterations 4
[OGL LOG][Proc: 0]: global_index_init: 0.361 [ms]
[OGL LOG][Proc: 0]Uz_local_coeffs: call_update: 0 [ms]
[OGL LOG][Proc: 0]Uz_non_local_coeffs: call_update: 0 [ms]
[OGL LOG][Proc: 0]Uz: update_local_matrix_data: 96.066 [ms]
[OGL LOG][Proc: 0]Uz: update_non_local_matrix_data: 1.091 [ms]
[OGL LOG][Proc: 0]Uz_matrix: call_update: 3.395 [ms]
[OGL LOG][Proc: 0]Uz_rhs: call_update: 3.636 [ms]
[OGL LOG][Preconditioner.H:121] Generate preconditioner BJ MaxBlockSize 1
[OGL LOG][Proc: 0]Uz: init_precond: 3.662 [ms]
[OGL LOG][StoppingCriterion.H:239] Creating stopping criterion with minIter 3 frequency 1
[OGL LOG][Proc: 0]Uz: generate_solver: 0.02 [ms]
[OGL LOG][Proc: 0]Uz: solve: 160.651 [ms]
[OGL LOG][Proc: 0]Uz: copy_x_back: 5.581 [ms]
[OGL LOG][lduLduBase.H:330] 
Statistics:
	Time per iteration: 40162 [mu s]
	Time per residual norm calculation: 1577.000000 [mu s]
	Time per iteration and DOF: 1.591927 [ns]
	Retrieve results bandwidth 2.710000 [GByte/s]
[OGL LOG][Proc: 0]Uz: solve_multi_gpu: 197.087 [ms]
BJcudaGKOBiCGStab:  Solving for Uz, Initial residual = 0.01500971273291445, Final residual = 0.0006498439597255371, No Iterations 4
[OGL LOG][Proc: 0]: global_index_init: 0.042 [ms]
[OGL LOG][Proc: 0]p_local_coeffs: call_update: 0 [ms]
[OGL LOG][Proc: 0]p_non_local_coeffs: call_update: 0 [ms]
[OGL LOG][Proc: 0]p: update_local_matrix_data: 69.44199999999999 [ms]
[OGL LOG][Proc: 0]p: update_non_local_matrix_data: 1.212 [ms]
[OGL LOG][Proc: 0]p_matrix: call_update: 3.353 [ms]
[OGL LOG][Proc: 0]p_rhs: call_update: 2.037 [ms]
[OGL LOG][Preconditioner.H:121] Generate preconditioner BJ MaxBlockSize 1
[OGL LOG][Proc: 0]p: init_precond: 2.246 [ms]
[OGL LOG][StoppingCriterion.H:239] Creating stopping criterion with minIter 232 frequency 7
[OGL LOG][Proc: 0]p: generate_solver: 0.022 [ms]
[OGL LOG][Proc: 0]p: solve: 2996.989 [ms]
[OGL LOG][Proc: 0]p: copy_x_back: 5.483 [ms]
[OGL LOG][lduLduBase.H:330] 
Statistics:
	Time per iteration: 4150 [mu s]
	Time per residual norm calculation: 1298.000000 [mu s]
	Time per iteration and DOF: 0.164496 [ns]
	Retrieve results bandwidth 2.759000 [GByte/s]
[OGL LOG][Proc: 0]p: solve_multi_gpu: 3020.589 [ms]
BJcudaGKOCG:  Solving for p, Initial residual = 0.07738533085050818, Final residual = 0.000751786203934368, No Iterations 722
time step continuity errors : sum local = 0.0005257191305814196, global = -5.300504417740619e-06, cumulative = -0.006839059669336391
[OGL LOG][Proc: 0]: global_index_init: 0.024 [ms]
[OGL LOG][Proc: 0]nuTilda_local_coeffs: call_update: 0 [ms]
[OGL LOG][Proc: 0]nuTilda_non_local_coeffs: call_update: 0 [ms]
[OGL LOG][Proc: 0]nuTilda: update_local_matrix_data: 93.89700000000001 [ms]
[OGL LOG][Proc: 0]nuTilda: update_non_local_matrix_data: 1.176 [ms]
[OGL LOG][Proc: 0]nuTilda_matrix: call_update: 3.122 [ms]
[OGL LOG][Proc: 0]nuTilda_rhs: call_update: 2.275 [ms]
[OGL LOG][Preconditioner.H:121] Generate preconditioner BJ MaxBlockSize 1
[OGL LOG][Proc: 0]nuTilda: init_precond: 2.223 [ms]
[OGL LOG][StoppingCriterion.H:239] Creating stopping criterion with minIter 3 frequency 1
[OGL LOG][Proc: 0]nuTilda: generate_solver: 0.025 [ms]
[OGL LOG][Proc: 0]nuTilda: solve: 112.274 [ms]
[OGL LOG][Proc: 0]nuTilda: copy_x_back: 5.31 [ms]
[OGL LOG][lduLduBase.H:330] 
Statistics:
	Time per iteration: 56137 [mu s]
	Time per residual norm calculation: 1620.000000 [mu s]
	Time per iteration and DOF: 2.225138 [ns]
	Retrieve results bandwidth 2.849000 [GByte/s]
[OGL LOG][Proc: 0]nuTilda: solve_multi_gpu: 131.868 [ms]
BJcudaGKOBiCGStab:  Solving for nuTilda, Initial residual = 0.007551707521049537, Final residual = 0.0005320547200824468, No Iterations 2
ExecutionTime = 1450.34 s  ClockTime = 1456 s

Time = 100

velocityDampingConstraint velocityDamping damped 0 (0%) of cells, with max limit 300
[OGL LOG][Proc: 0]: global_index_init: 0.11 [ms]
[OGL LOG][Proc: 0]Ux_local_coeffs: call_update: 0 [ms]
[OGL LOG][Proc: 0]Ux_non_local_coeffs: call_update: 0 [ms]
[OGL LOG][Proc: 0]Ux: update_local_matrix_data: 99.446 [ms]
[OGL LOG][Proc: 0]Ux: update_non_local_matrix_data: 1.237 [ms]
[OGL LOG][Proc: 0]Ux_matrix: call_update: 3.608 [ms]
[OGL LOG][Proc: 0]Ux_rhs: call_update: 1.939 [ms]
[OGL LOG][Preconditioner.H:121] Generate preconditioner BJ MaxBlockSize 1
[OGL LOG][Proc: 0]Ux: init_precond: 1.285 [ms]
[OGL LOG][StoppingCriterion.H:239] Creating stopping criterion with minIter 3 frequency 1
[OGL LOG][Proc: 0]Ux: generate_solver: 0.016 [ms]
[OGL LOG][Proc: 0]Ux: solve: 116.362 [ms]
[OGL LOG][Proc: 0]Ux: copy_x_back: 5.894 [ms]
[OGL LOG][lduLduBase.H:330] 
Statistics:
	Time per iteration: 38787 [mu s]
	Time per residual norm calculation: 1684.000000 [mu s]
	Time per iteration and DOF: 1.537425 [ns]
	Retrieve results bandwidth 2.566000 [GByte/s]
[OGL LOG][Proc: 0]Ux: solve_multi_gpu: 136.577 [ms]
BJcudaGKOBiCGStab:  Solving for Ux, Initial residual = 0.002914012040143108, Final residual = 0.0002714624861922645, No Iterations 3
[OGL LOG][Proc: 0]: global_index_init: 0.097 [ms]
[OGL LOG][Proc: 0]Uy_local_coeffs: call_update: 0 [ms]
[OGL LOG][Proc: 0]Uy_non_local_coeffs: call_update: 0 [ms]
[OGL LOG][Proc: 0]Uy: update_local_matrix_data: 98.42400000000001 [ms]
[OGL LOG][Proc: 0]Uy: update_non_local_matrix_data: 1.212 [ms]
[OGL LOG][Proc: 0]Uy_matrix: call_update: 3.544 [ms]
[OGL LOG][Proc: 0]Uy_rhs: call_update: 1.992 [ms]
[OGL LOG][Preconditioner.H:121] Generate preconditioner BJ MaxBlockSize 1
[OGL LOG][Proc: 0]Uy: init_precond: 1.698 [ms]
[OGL LOG][StoppingCriterion.H:239] Creating stopping criterion with minIter 4 frequency 1
[OGL LOG][Proc: 0]Uy: generate_solver: 0.015 [ms]
[OGL LOG][Proc: 0]Uy: solve: 115.651 [ms]
[OGL LOG][Proc: 0]Uy: copy_x_back: 5.677 [ms]
[OGL LOG][lduLduBase.H:330] 
Statistics:
	Time per iteration: 28912 [mu s]
	Time per residual norm calculation: 1662.000000 [mu s]
	Time per iteration and DOF: 1.146004 [ns]
	Retrieve results bandwidth 2.664000 [GByte/s]
[OGL LOG][Proc: 0]Uy: solve_multi_gpu: 135.801 [ms]
BJcudaGKOBiCGStab:  Solving for Uy, Initial residual = 0.01278063966791769, Final residual = 0.001086528238169694, No Iterations 4
[OGL LOG][Proc: 0]: global_index_init: 0.394 [ms]
[OGL LOG][Proc: 0]Uz_local_coeffs: call_update: 0 [ms]
[OGL LOG][Proc: 0]Uz_non_local_coeffs: call_update: 0 [ms]
[OGL LOG][Proc: 0]Uz: update_local_matrix_data: 100.044 [ms]
[OGL LOG][Proc: 0]Uz: update_non_local_matrix_data: 1.142 [ms]
[OGL LOG][Proc: 0]Uz_matrix: call_update: 3.395 [ms]
[OGL LOG][Proc: 0]Uz_rhs: call_update: 4.909 [ms]
[OGL LOG][Preconditioner.H:121] Generate preconditioner BJ MaxBlockSize 1
[OGL LOG][Proc: 0]Uz: init_precond: 1.91 [ms]
[OGL LOG][StoppingCriterion.H:239] Creating stopping criterion with minIter 4 frequency 1
[OGL LOG][Proc: 0]Uz: generate_solver: 0.015 [ms]
[OGL LOG][Proc: 0]Uz: solve: 126.732 [ms]
[OGL LOG][Proc: 0]Uz: copy_x_back: 5.371 [ms]
[OGL LOG][lduLduBase.H:330] 
Statistics:
	Time per iteration: 42244 [mu s]
	Time per residual norm calculation: 1601.000000 [mu s]
	Time per iteration and DOF: 1.674453 [ns]
	Retrieve results bandwidth 2.816000 [GByte/s]
[OGL LOG][Proc: 0]Uz: solve_multi_gpu: 147.146 [ms]
BJcudaGKOBiCGStab:  Solving for Uz, Initial residual = 0.01488188155107313, Final residual = 0.001180895601838574, No Iterations 3
[OGL LOG][Proc: 0]: global_index_init: 0.02 [ms]
[OGL LOG][Proc: 0]p_local_coeffs: call_update: 0 [ms]
[OGL LOG][Proc: 0]p_non_local_coeffs: call_update: 0 [ms]
[OGL LOG][Proc: 0]p: update_local_matrix_data: 79.732 [ms]
[OGL LOG][Proc: 0]p: update_non_local_matrix_data: 1.164 [ms]
[OGL LOG][Proc: 0]p_matrix: call_update: 3.406 [ms]
[OGL LOG][Proc: 0]p_rhs: call_update: 1.973 [ms]
[OGL LOG][Preconditioner.H:121] Generate preconditioner BJ MaxBlockSize 1
[OGL LOG][Proc: 0]p: init_precond: 1.617 [ms]
[OGL LOG][StoppingCriterion.H:239] Creating stopping criterion with minIter 433 frequency 9
[OGL LOG][Proc: 0]p: generate_solver: 0.015 [ms]
[OGL LOG][Proc: 0]p: solve: 2149.793 [ms]
[OGL LOG][Proc: 0]p: copy_x_back: 6.277 [ms]
[OGL LOG][lduLduBase.H:330] 
Statistics:
	Time per iteration: 4110 [mu s]
	Time per residual norm calculation: 1288.000000 [mu s]
	Time per iteration and DOF: 0.162911 [ns]
	Retrieve results bandwidth 2.410000 [GByte/s]
[OGL LOG][Proc: 0]p: solve_multi_gpu: 2165.766 [ms]
BJcudaGKOCG:  Solving for p, Initial residual = 0.07592748898121154, Final residual = 0.0007370397536340443, No Iterations 523
time step continuity errors : sum local = 0.0006007013775112782, global = 2.985033396737349e-05, cumulative = -0.006809209335369017
[OGL LOG][Proc: 0]: global_index_init: 7.638 [ms]
[OGL LOG][Proc: 0]nuTilda_local_coeffs: call_update: 0 [ms]
[OGL LOG][Proc: 0]nuTilda_non_local_coeffs: call_update: 0 [ms]
[OGL LOG][Proc: 0]nuTilda: update_local_matrix_data: 87.209 [ms]
[OGL LOG][Proc: 0]nuTilda: update_non_local_matrix_data: 1.077 [ms]
[OGL LOG][Proc: 0]nuTilda_matrix: call_update: 3.18 [ms]
[OGL LOG][Proc: 0]nuTilda_rhs: call_update: 2.151 [ms]
[OGL LOG][Preconditioner.H:121] Generate preconditioner BJ MaxBlockSize 1
[OGL LOG][Proc: 0]nuTilda: init_precond: 1.743 [ms]
[OGL LOG][StoppingCriterion.H:239] Creating stopping criterion with minIter 3 frequency 1
[OGL LOG][Proc: 0]nuTilda: generate_solver: 0.015 [ms]
[OGL LOG][Proc: 0]nuTilda: solve: 103.537 [ms]
[OGL LOG][Proc: 0]nuTilda: copy_x_back: 5.286 [ms]
[OGL LOG][lduLduBase.H:330] 
Statistics:
	Time per iteration: 51768 [mu s]
	Time per residual norm calculation: 1236.000000 [mu s]
	Time per iteration and DOF: 2.051961 [ns]
	Retrieve results bandwidth 2.862000 [GByte/s]
[OGL LOG][Proc: 0]nuTilda: solve_multi_gpu: 127.409 [ms]
BJcudaGKOBiCGStab:  Solving for nuTilda, Initial residual = 0.006518815680908875, Final residual = 0.000438676096048698, No Iterations 2
ExecutionTime = 1460.54 s  ClockTime = 1466 s

End

Finalising parallel run
