/*---------------------------------------------------------------------------*\
| =========                 |                                                 |
| \\      /  F ield         | OpenFOAM: The Open Source CFD Toolbox           |
|  \\    /   O peration     | Version:  2312                                  |
|   \\  /    A nd           | Website:  www.openfoam.com                      |
|    \\/     M anipulation  |                                                 |
\*---------------------------------------------------------------------------*/
Build  : a46b310f-20240104 OPENFOAM=2312 version=v2312
Arch   : "LSB;label=32;scalar=64"
Exec   : decomposePar -force
Date   : Feb 16 2024
Time   : 21:49:47
Host   : i20r02c04s04
PID    : 44788
--> FOAM Warning : 
    From Foam::fileName Foam::cwd_L()
    in file POSIX.C at line 552
    PWD is not the cwd() - reverting to physical description
I/O    : uncollated
--> FOAM Warning : 
    From Foam::fileName Foam::cwd_L()
    in file POSIX.C at line 552
    PWD is not the cwd() - reverting to physical description
Case   : /hppfs/scratch/0B/di35yan/lidDriven3D/workspace/cf4ed0c06d2bcccc5f913d4e78600237/case
nProcs : 1
trapFpe: Floating point exception trapping enabled (FOAM_SIGFPE).
fileModificationChecking : Monitoring run-time modified files using timeStampMaster (fileModificationSkew 5, maxFileModificationPolls 20)
allowSystemOperations : Allowing user-supplied system call operations

// * * * * * * * * * * * * * * * * * * * * * * * * * * * * * * * * * * * * * //
Create time

--> FOAM Warning : 
    From void* Foam::dlLibraryTable::openLibrary(const Foam::fileName&, bool)
    in file db/dynamicLibrary/dlLibraryTable/dlLibraryTable.C at line 188
    Could not load "libpetscFoam.so"
libpetscFoam.so: cannot open shared object file: No such file or directory


Decomposing mesh

Create mesh

Calculating distribution of cells
Decomposition method simple [112] (region region0)

Finished decomposition in 85.56 s

Calculating original mesh data

Distributing cells to processors

Distributing faces to processors

Distributing points to processors

Constructing processor meshes

Processor 0
    Number of cells = 1116750
    Number of points = 1161908
    Number of faces shared with processor 1 = 8996
    Number of faces shared with processor 4 = 31499
    Number of faces shared with processor 56 = 4375
    Number of processor patches = 3
    Number of processor faces = 44870
    Number of boundary faces = 44622

Processor 1
    Number of cells = 1124994
    Number of points = 1170156
    Number of faces shared with processor 0 = 8996
    Number of faces shared with processor 2 = 9000
    Number of faces shared with processor 4 = 1
    Number of faces shared with processor 5 = 31256
    Number of faces shared with processor 57 = 4496
    Number of faces shared with processor 61 = 1
    Number of processor patches = 6
    Number of processor faces = 53750
    Number of boundary faces = 35750

Processor 2
    Number of cells = 1121796
    Number of points = 1166904
    Number of faces shared with processor 1 = 9000
    Number of faces shared with processor 3 = 8964
    Number of faces shared with processor 6 = 31196
    Number of faces shared with processor 58 = 4606
    Number of processor patches = 4
    Number of processor faces = 53766
    Number of boundary faces = 35626

Processor 3
    Number of cells = 1120500
    Number of points = 1165500
    Number of faces shared with processor 2 = 8964
    Number of faces shared with processor 7 = 31125
    Number of faces shared with processor 59 = 4500
    Number of processor patches = 3
    Number of processor faces = 44589
    Number of boundary faces = 44589

Processor 4
    Number of cells = 1105828
    Number of points = 1151043
    Number of faces shared with processor 0 = 31499
    Number of faces shared with processor 1 = 1
    Number of faces shared with processor 5 = 8840
    Number of faces shared with processor 8 = 31424
    Number of faces shared with processor 60 = 4500
    Number of processor patches = 5
    Number of processor faces = 76264
    Number of boundary faces = 13340

Processor 5
    Number of cells = 1112506
    Number of points = 1157637
    Number of faces shared with processor 1 = 31256
    Number of faces shared with processor 4 = 8840
    Number of faces shared with processor 6 = 8962
    Number of faces shared with processor 8 = 1
    Number of faces shared with processor 9 = 31499
    Number of faces shared with processor 61 = 4378
    Number of processor patches = 6
    Number of processor faces = 84936
    Number of boundary faces = 4500

Processor 6
    Number of cells = 1123595
    Number of points = 1168757
    Number of faces shared with processor 2 = 31196
    Number of faces shared with processor 5 = 8962
    Number of faces shared with processor 7 = 8973
    Number of faces shared with processor 9 = 1
    Number of faces shared with processor 10 = 31324
    Number of faces shared with processor 58 = 2
    Number of faces shared with processor 62 = 4540
    Number of faces shared with processor 63 = 1
    Number of faces shared with processor 66 = 1
    Number of processor patches = 9
    Number of processor faces = 85000
    Number of boundary faces = 4500

Processor 7
    Number of cells = 1120590
    Number of points = 1165618
    Number of faces shared with processor 3 = 31125
    Number of faces shared with processor 6 = 8973
    Number of faces shared with processor 11 = 31143
    Number of faces shared with processor 63 = 4527
    Number of processor patches = 4
    Number of processor faces = 75768
    Number of boundary faces = 13464

Processor 8
    Number of cells = 1121172
    Number of points = 1166334
    Number of faces shared with processor 4 = 31424
    Number of faces shared with processor 5 = 1
    Number of faces shared with processor 9 = 8912
    Number of faces shared with processor 12 = 31250
    Number of faces shared with processor 64 = 4500
    Number of processor patches = 5
    Number of processor faces = 76087
    Number of boundary faces = 13413

Processor 9
    Number of cells = 1106386
    Number of points = 1151493
    Number of faces shared with processor 5 = 31499
    Number of faces shared with processor 6 = 1
    Number of faces shared with processor 8 = 8912
    Number of faces shared with processor 10 = 8803
    Number of faces shared with processor 13 = 31282
    Number of faces shared with processor 65 = 4500
    Number of processor patches = 6
    Number of processor faces = 84997
    Number of boundary faces = 4391

Processor 10
    Number of cells = 1104408
    Number of points = 1149537
    Number of faces shared with processor 6 = 31324
    Number of faces shared with processor 9 = 8803
    Number of faces shared with processor 11 = 8892
    Number of faces shared with processor 13 = 1
    Number of faces shared with processor 14 = 31500
    Number of faces shared with processor 66 = 4412
    Number of processor patches = 6
    Number of processor faces = 84932
    Number of boundary faces = 4500

Processor 11
    Number of cells = 1116719
    Number of points = 1161843
    Number of faces shared with processor 7 = 31143
    Number of faces shared with processor 10 = 8892
    Number of faces shared with processor 14 = 1
    Number of faces shared with processor 15 = 31425
    Number of faces shared with processor 63 = 2
    Number of faces shared with processor 67 = 4496
    Number of faces shared with processor 71 = 1
    Number of processor patches = 7
    Number of processor faces = 75960
    Number of boundary faces = 13464

Processor 12
    Number of cells = 1124847
    Number of points = 1170009
    Number of faces shared with processor 8 = 31250
    Number of faces shared with processor 13 = 9000
    Number of faces shared with processor 16 = 31284
    Number of faces shared with processor 68 = 4482
    Number of faces shared with processor 72 = 1
    Number of processor patches = 5
    Number of processor faces = 76017
    Number of boundary faces = 13483

Processor 13
    Number of cells = 1124864
    Number of points = 1170026
    Number of faces shared with processor 9 = 31282
    Number of faces shared with processor 10 = 1
    Number of faces shared with processor 12 = 9000
    Number of faces shared with processor 14 = 8983
    Number of faces shared with processor 17 = 31250
    Number of faces shared with processor 69 = 4500
    Number of processor patches = 6
    Number of processor faces = 85016
    Number of boundary faces = 4484

Processor 14
    Number of cells = 1115045
    Number of points = 1160190
    Number of faces shared with processor 10 = 31500
    Number of faces shared with processor 11 = 1
    Number of faces shared with processor 13 = 8983
    Number of faces shared with processor 15 = 8857
    Number of faces shared with processor 18 = 31250
    Number of faces shared with processor 70 = 4500
    Number of processor patches = 6
    Number of processor faces = 85091
    Number of boundary faces = 4375

Processor 15
    Number of cells = 1099222
    Number of points = 1144222
    Number of faces shared with processor 11 = 31425
    Number of faces shared with processor 14 = 8857
    Number of faces shared with processor 19 = 31250
    Number of faces shared with processor 67 = 2
    Number of faces shared with processor 71 = 4534
    Number of processor patches = 5
    Number of processor faces = 76068
    Number of boundary faces = 13108

Processor 16
    Number of cells = 1106278
    Number of points = 1151386
    Number of faces shared with processor 12 = 31284
    Number of faces shared with processor 17 = 8911
    Number of faces shared with processor 20 = 31499
    Number of faces shared with processor 72 = 4392
    Number of processor patches = 4
    Number of processor faces = 76086
    Number of boundary faces = 13304

Processor 17
    Number of cells = 1121110
    Number of points = 1166272
    Number of faces shared with processor 13 = 31250
    Number of faces shared with processor 16 = 8911
    Number of faces shared with processor 18 = 9000
    Number of faces shared with processor 20 = 1
    Number of faces shared with processor 21 = 31425
    Number of faces shared with processor 73 = 4412
    Number of faces shared with processor 77 = 1
    Number of processor patches = 7
    Number of processor faces = 85000
    Number of boundary faces = 4500

Processor 18
    Number of cells = 1125000
    Number of points = 1170162
    Number of faces shared with processor 14 = 31250
    Number of faces shared with processor 17 = 9000
    Number of faces shared with processor 19 = 9000
    Number of faces shared with processor 22 = 31250
    Number of faces shared with processor 74 = 4500
    Number of processor patches = 5
    Number of processor faces = 85000
    Number of boundary faces = 4500

Processor 19
    Number of cells = 1125000
    Number of points = 1170162
    Number of faces shared with processor 15 = 31250
    Number of faces shared with processor 18 = 9000
    Number of faces shared with processor 23 = 31250
    Number of faces shared with processor 75 = 4500
    Number of processor patches = 4
    Number of processor faces = 76000
    Number of boundary faces = 13500

Processor 20
    Number of cells = 1112628
    Number of points = 1157758
    Number of faces shared with processor 16 = 31499
    Number of faces shared with processor 17 = 1
    Number of faces shared with processor 21 = 8840
    Number of faces shared with processor 24 = 31254
    Number of faces shared with processor 76 = 4500
    Number of processor patches = 5
    Number of processor faces = 76094
    Number of boundary faces = 13340

Processor 21
    Number of cells = 1105765
    Number of points = 1150980
    Number of faces shared with processor 17 = 31425
    Number of faces shared with processor 20 = 8840
    Number of faces shared with processor 22 = 8877
    Number of faces shared with processor 24 = 1
    Number of faces shared with processor 25 = 31499
    Number of faces shared with processor 77 = 4462
    Number of processor patches = 6
    Number of processor faces = 85104
    Number of boundary faces = 4500

Processor 22
    Number of cells = 1117548
    Number of points = 1162710
    Number of faces shared with processor 18 = 31250
    Number of faces shared with processor 21 = 8877
    Number of faces shared with processor 23 = 9000
    Number of faces shared with processor 25 = 1
    Number of faces shared with processor 26 = 31493
    Number of faces shared with processor 78 = 4378
    Number of faces shared with processor 82 = 1
    Number of processor patches = 7
    Number of processor faces = 85000
    Number of boundary faces = 4500

Processor 23
    Number of cells = 1125000
    Number of points = 1170162
    Number of faces shared with processor 19 = 31250
    Number of faces shared with processor 22 = 9000
    Number of faces shared with processor 27 = 31250
    Number of faces shared with processor 79 = 4500
    Number of processor patches = 4
    Number of processor faces = 76000
    Number of boundary faces = 13500

Processor 24
    Number of cells = 1124997
    Number of points = 1170159
    Number of faces shared with processor 20 = 31254
    Number of faces shared with processor 21 = 1
    Number of faces shared with processor 25 = 8997
    Number of faces shared with processor 28 = 31250
    Number of faces shared with processor 80 = 4500
    Number of processor patches = 5
    Number of processor faces = 76002
    Number of boundary faces = 13498

Processor 25
    Number of cells = 1116875
    Number of points = 1162034
    Number of faces shared with processor 21 = 31499
    Number of faces shared with processor 22 = 1
    Number of faces shared with processor 24 = 8997
    Number of faces shared with processor 26 = 8872
    Number of faces shared with processor 29 = 31250
    Number of faces shared with processor 81 = 4500
    Number of processor patches = 6
    Number of processor faces = 85119
    Number of boundary faces = 4375

Processor 26
    Number of cells = 1101202
    Number of points = 1146232
    Number of faces shared with processor 22 = 31493
    Number of faces shared with processor 25 = 8872
    Number of faces shared with processor 27 = 8750
    Number of faces shared with processor 30 = 31250
    Number of faces shared with processor 82 = 4496
    Number of processor patches = 5
    Number of processor faces = 84861
    Number of boundary faces = 4375

Processor 27
    Number of cells = 1093753
    Number of points = 1138544
    Number of faces shared with processor 23 = 31250
    Number of faces shared with processor 26 = 8750
    Number of faces shared with processor 31 = 31254
    Number of faces shared with processor 83 = 4375
    Number of processor patches = 4
    Number of processor faces = 75629
    Number of boundary faces = 13129

Processor 28
    Number of cells = 1116750
    Number of points = 1161908
    Number of faces shared with processor 24 = 31250
    Number of faces shared with processor 29 = 8996
    Number of faces shared with processor 32 = 31499
    Number of faces shared with processor 84 = 4375
    Number of processor patches = 4
    Number of processor faces = 76120
    Number of boundary faces = 13372

Processor 29
    Number of cells = 1124994
    Number of points = 1170156
    Number of faces shared with processor 25 = 31250
    Number of faces shared with processor 28 = 8996
    Number of faces shared with processor 30 = 9000
    Number of faces shared with processor 32 = 1
    Number of faces shared with processor 33 = 31256
    Number of faces shared with processor 85 = 4496
    Number of faces shared with processor 89 = 1
    Number of processor patches = 7
    Number of processor faces = 85000
    Number of boundary faces = 4500

Processor 30
    Number of cells = 1125000
    Number of points = 1170162
    Number of faces shared with processor 26 = 31250
    Number of faces shared with processor 29 = 9000
    Number of faces shared with processor 31 = 9000
    Number of faces shared with processor 34 = 31250
    Number of faces shared with processor 86 = 4500
    Number of processor patches = 5
    Number of processor faces = 85000
    Number of boundary faces = 4500

Processor 31
    Number of cells = 1124997
    Number of points = 1170159
    Number of faces shared with processor 27 = 31254
    Number of faces shared with processor 30 = 9000
    Number of faces shared with processor 35 = 31250
    Number of faces shared with processor 87 = 4500
    Number of processor patches = 4
    Number of processor faces = 76004
    Number of boundary faces = 13496

Processor 32
    Number of cells = 1105828
    Number of points = 1151043
    Number of faces shared with processor 28 = 31499
    Number of faces shared with processor 29 = 1
    Number of faces shared with processor 33 = 8840
    Number of faces shared with processor 36 = 31424
    Number of faces shared with processor 88 = 4500
    Number of processor patches = 5
    Number of processor faces = 76264
    Number of boundary faces = 13340

Processor 33
    Number of cells = 1112506
    Number of points = 1157637
    Number of faces shared with processor 29 = 31256
    Number of faces shared with processor 32 = 8840
    Number of faces shared with processor 34 = 8962
    Number of faces shared with processor 36 = 1
    Number of faces shared with processor 37 = 31499
    Number of faces shared with processor 89 = 4378
    Number of processor patches = 6
    Number of processor faces = 84936
    Number of boundary faces = 4500

Processor 34
    Number of cells = 1124297
    Number of points = 1169459
    Number of faces shared with processor 30 = 31250
    Number of faces shared with processor 33 = 8962
    Number of faces shared with processor 35 = 9000
    Number of faces shared with processor 37 = 1
    Number of faces shared with processor 38 = 31324
    Number of faces shared with processor 90 = 4462
    Number of faces shared with processor 94 = 1
    Number of processor patches = 7
    Number of processor faces = 85000
    Number of boundary faces = 4500

Processor 35
    Number of cells = 1125000
    Number of points = 1170162
    Number of faces shared with processor 31 = 31250
    Number of faces shared with processor 34 = 9000
    Number of faces shared with processor 39 = 31250
    Number of faces shared with processor 91 = 4500
    Number of processor patches = 4
    Number of processor faces = 76000
    Number of boundary faces = 13500

Processor 36
    Number of cells = 1121172
    Number of points = 1166334
    Number of faces shared with processor 32 = 31424
    Number of faces shared with processor 33 = 1
    Number of faces shared with processor 37 = 8912
    Number of faces shared with processor 40 = 31250
    Number of faces shared with processor 92 = 4500
    Number of processor patches = 5
    Number of processor faces = 76087
    Number of boundary faces = 13413

Processor 37
    Number of cells = 1106386
    Number of points = 1151493
    Number of faces shared with processor 33 = 31499
    Number of faces shared with processor 34 = 1
    Number of faces shared with processor 36 = 8912
    Number of faces shared with processor 38 = 8803
    Number of faces shared with processor 41 = 31282
    Number of faces shared with processor 93 = 4500
    Number of processor patches = 6
    Number of processor faces = 84997
    Number of boundary faces = 4391

Processor 38
    Number of cells = 1104408
    Number of points = 1149537
    Number of faces shared with processor 34 = 31324
    Number of faces shared with processor 37 = 8803
    Number of faces shared with processor 39 = 8892
    Number of faces shared with processor 41 = 1
    Number of faces shared with processor 42 = 31500
    Number of faces shared with processor 94 = 4412
    Number of processor patches = 6
    Number of processor faces = 84932
    Number of boundary faces = 4500

Processor 39
    Number of cells = 1119222
    Number of points = 1164384
    Number of faces shared with processor 35 = 31250
    Number of faces shared with processor 38 = 8892
    Number of faces shared with processor 42 = 1
    Number of faces shared with processor 43 = 31464
    Number of faces shared with processor 95 = 4392
    Number of faces shared with processor 99 = 1
    Number of processor patches = 6
    Number of processor faces = 76000
    Number of boundary faces = 13500

Processor 40
    Number of cells = 1125153
    Number of points = 1170369
    Number of faces shared with processor 36 = 31250
    Number of faces shared with processor 41 = 9000
    Number of faces shared with processor 44 = 31321
    Number of faces shared with processor 96 = 4534
    Number of faces shared with processor 100 = 1
    Number of processor patches = 5
    Number of processor faces = 76106
    Number of boundary faces = 13500

Processor 41
    Number of cells = 1124864
    Number of points = 1170026
    Number of faces shared with processor 37 = 31282
    Number of faces shared with processor 38 = 1
    Number of faces shared with processor 40 = 9000
    Number of faces shared with processor 42 = 8983
    Number of faces shared with processor 45 = 31250
    Number of faces shared with processor 97 = 4500
    Number of processor patches = 6
    Number of processor faces = 85016
    Number of boundary faces = 4484

Processor 42
    Number of cells = 1115045
    Number of points = 1160190
    Number of faces shared with processor 38 = 31500
    Number of faces shared with processor 39 = 1
    Number of faces shared with processor 41 = 8983
    Number of faces shared with processor 43 = 8857
    Number of faces shared with processor 46 = 31250
    Number of faces shared with processor 98 = 4500
    Number of processor patches = 6
    Number of processor faces = 85091
    Number of boundary faces = 4375

Processor 43
    Number of cells = 1099528
    Number of points = 1144529
    Number of faces shared with processor 39 = 31464
    Number of faces shared with processor 42 = 8857
    Number of faces shared with processor 47 = 31250
    Number of faces shared with processor 99 = 4482
    Number of processor patches = 4
    Number of processor faces = 76053
    Number of boundary faces = 13125

Processor 44
    Number of cells = 1108781
    Number of points = 1154032
    Number of faces shared with processor 40 = 31321
    Number of faces shared with processor 45 = 8911
    Number of faces shared with processor 48 = 31604
    Number of faces shared with processor 96 = 2
    Number of faces shared with processor 100 = 4496
    Number of processor patches = 5
    Number of processor faces = 76334
    Number of boundary faces = 13340

Processor 45
    Number of cells = 1121108
    Number of points = 1166270
    Number of faces shared with processor 41 = 31250
    Number of faces shared with processor 44 = 8911
    Number of faces shared with processor 46 = 9000
    Number of faces shared with processor 48 = 1
    Number of faces shared with processor 49 = 31425
    Number of faces shared with processor 101 = 4412
    Number of faces shared with processor 105 = 1
    Number of processor patches = 7
    Number of processor faces = 85000
    Number of boundary faces = 4500

Processor 46
    Number of cells = 1125000
    Number of points = 1170162
    Number of faces shared with processor 42 = 31250
    Number of faces shared with processor 45 = 9000
    Number of faces shared with processor 47 = 9000
    Number of faces shared with processor 50 = 31250
    Number of faces shared with processor 102 = 4500
    Number of processor patches = 5
    Number of processor faces = 85000
    Number of boundary faces = 4500

Processor 47
    Number of cells = 1125000
    Number of points = 1170162
    Number of faces shared with processor 43 = 31250
    Number of faces shared with processor 46 = 9000
    Number of faces shared with processor 51 = 31250
    Number of faces shared with processor 103 = 4500
    Number of processor patches = 4
    Number of processor faces = 76000
    Number of boundary faces = 13500

Processor 48
    Number of cells = 1117038
    Number of points = 1162330
    Number of faces shared with processor 44 = 31604
    Number of faces shared with processor 45 = 1
    Number of faces shared with processor 49 = 8866
    Number of faces shared with processor 52 = 31379
    Number of faces shared with processor 100 = 2
    Number of faces shared with processor 104 = 4527
    Number of faces shared with processor 105 = 1
    Number of processor patches = 7
    Number of processor faces = 76380
    Number of boundary faces = 13376

Processor 49
    Number of cells = 1106469
    Number of points = 1151763
    Number of faces shared with processor 45 = 31425
    Number of faces shared with processor 48 = 8866
    Number of faces shared with processor 50 = 8877
    Number of faces shared with processor 52 = 1
    Number of faces shared with processor 53 = 31551
    Number of faces shared with processor 105 = 4540
    Number of processor patches = 6
    Number of processor faces = 85260
    Number of boundary faces = 4500

Processor 50
    Number of cells = 1117545
    Number of points = 1162707
    Number of faces shared with processor 46 = 31250
    Number of faces shared with processor 49 = 8877
    Number of faces shared with processor 51 = 9000
    Number of faces shared with processor 53 = 1
    Number of faces shared with processor 54 = 31493
    Number of faces shared with processor 106 = 4378
    Number of faces shared with processor 110 = 1
    Number of processor patches = 7
    Number of processor faces = 85000
    Number of boundary faces = 4500

Processor 51
    Number of cells = 1125000
    Number of points = 1170162
    Number of faces shared with processor 47 = 31250
    Number of faces shared with processor 50 = 9000
    Number of faces shared with processor 55 = 31250
    Number of faces shared with processor 107 = 4500
    Number of processor patches = 4
    Number of processor faces = 76000
    Number of boundary faces = 13500

Processor 52
    Number of cells = 1129497
    Number of points = 1174821
    Number of faces shared with processor 48 = 31379
    Number of faces shared with processor 49 = 1
    Number of faces shared with processor 53 = 9033
    Number of faces shared with processor 108 = 4500
    Number of processor patches = 4
    Number of processor faces = 44913
    Number of boundary faces = 44909

Processor 53
    Number of cells = 1120079
    Number of points = 1165399
    Number of faces shared with processor 49 = 31551
    Number of faces shared with processor 50 = 1
    Number of faces shared with processor 52 = 9033
    Number of faces shared with processor 54 = 8872
    Number of faces shared with processor 105 = 2
    Number of faces shared with processor 109 = 4606
    Number of processor patches = 6
    Number of processor faces = 54065
    Number of boundary faces = 35749

Processor 54
    Number of cells = 1101205
    Number of points = 1146235
    Number of faces shared with processor 50 = 31493
    Number of faces shared with processor 53 = 8872
    Number of faces shared with processor 55 = 8750
    Number of faces shared with processor 110 = 4496
    Number of processor patches = 4
    Number of processor faces = 53611
    Number of boundary faces = 35625

Processor 55
    Number of cells = 1093750
    Number of points = 1138536
    Number of faces shared with processor 51 = 31250
    Number of faces shared with processor 54 = 8750
    Number of faces shared with processor 111 = 4375
    Number of processor patches = 3
    Number of processor faces = 44375
    Number of boundary faces = 44375

Processor 56
    Number of cells = 1093750
    Number of points = 1138536
    Number of faces shared with processor 0 = 4375
    Number of faces shared with processor 57 = 8750
    Number of faces shared with processor 60 = 31250
    Number of processor patches = 3
    Number of processor faces = 44375
    Number of boundary faces = 44375

Processor 57
    Number of cells = 1101206
    Number of points = 1146236
    Number of faces shared with processor 1 = 4496
    Number of faces shared with processor 56 = 8750
    Number of faces shared with processor 58 = 8872
    Number of faces shared with processor 61 = 31493
    Number of processor patches = 4
    Number of processor faces = 53611
    Number of boundary faces = 35625

Processor 58
    Number of cells = 1120079
    Number of points = 1165399
    Number of faces shared with processor 2 = 4606
    Number of faces shared with processor 6 = 2
    Number of faces shared with processor 57 = 8872
    Number of faces shared with processor 59 = 9033
    Number of faces shared with processor 61 = 1
    Number of faces shared with processor 62 = 31551
    Number of processor patches = 6
    Number of processor faces = 54065
    Number of boundary faces = 35749

Processor 59
    Number of cells = 1129497
    Number of points = 1174821
    Number of faces shared with processor 3 = 4500
    Number of faces shared with processor 58 = 9033
    Number of faces shared with processor 62 = 1
    Number of faces shared with processor 63 = 31379
    Number of processor patches = 4
    Number of processor faces = 44913
    Number of boundary faces = 44909

Processor 60
    Number of cells = 1125000
    Number of points = 1170162
    Number of faces shared with processor 4 = 4500
    Number of faces shared with processor 56 = 31250
    Number of faces shared with processor 61 = 9000
    Number of faces shared with processor 64 = 31250
    Number of processor patches = 4
    Number of processor faces = 76000
    Number of boundary faces = 13500

Processor 61
    Number of cells = 1117544
    Number of points = 1162706
    Number of faces shared with processor 1 = 1
    Number of faces shared with processor 5 = 4378
    Number of faces shared with processor 57 = 31493
    Number of faces shared with processor 58 = 1
    Number of faces shared with processor 60 = 9000
    Number of faces shared with processor 62 = 8877
    Number of faces shared with processor 65 = 31250
    Number of processor patches = 7
    Number of processor faces = 85000
    Number of boundary faces = 4500

Processor 62
    Number of cells = 1106471
    Number of points = 1151765
    Number of faces shared with processor 6 = 4540
    Number of faces shared with processor 58 = 31551
    Number of faces shared with processor 59 = 1
    Number of faces shared with processor 61 = 8877
    Number of faces shared with processor 63 = 8866
    Number of faces shared with processor 66 = 31425
    Number of processor patches = 6
    Number of processor faces = 85260
    Number of boundary faces = 4500

Processor 63
    Number of cells = 1117038
    Number of points = 1162330
    Number of faces shared with processor 6 = 1
    Number of faces shared with processor 7 = 4527
    Number of faces shared with processor 11 = 2
    Number of faces shared with processor 59 = 31379
    Number of faces shared with processor 62 = 8866
    Number of faces shared with processor 66 = 1
    Number of faces shared with processor 67 = 31604
    Number of processor patches = 7
    Number of processor faces = 76380
    Number of boundary faces = 13376

Processor 64
    Number of cells = 1125000
    Number of points = 1170162
    Number of faces shared with processor 8 = 4500
    Number of faces shared with processor 60 = 31250
    Number of faces shared with processor 65 = 9000
    Number of faces shared with processor 68 = 31250
    Number of processor patches = 4
    Number of processor faces = 76000
    Number of boundary faces = 13500

Processor 65
    Number of cells = 1125000
    Number of points = 1170162
    Number of faces shared with processor 9 = 4500
    Number of faces shared with processor 61 = 31250
    Number of faces shared with processor 64 = 9000
    Number of faces shared with processor 66 = 9000
    Number of faces shared with processor 69 = 31250
    Number of processor patches = 5
    Number of processor faces = 85000
    Number of boundary faces = 4500

Processor 66
    Number of cells = 1121106
    Number of points = 1166268
    Number of faces shared with processor 6 = 1
    Number of faces shared with processor 10 = 4412
    Number of faces shared with processor 62 = 31425
    Number of faces shared with processor 63 = 1
    Number of faces shared with processor 65 = 9000
    Number of faces shared with processor 67 = 8911
    Number of faces shared with processor 70 = 31250
    Number of processor patches = 7
    Number of processor faces = 85000
    Number of boundary faces = 4500

Processor 67
    Number of cells = 1108781
    Number of points = 1154032
    Number of faces shared with processor 11 = 4496
    Number of faces shared with processor 15 = 2
    Number of faces shared with processor 63 = 31604
    Number of faces shared with processor 66 = 8911
    Number of faces shared with processor 71 = 31321
    Number of processor patches = 5
    Number of processor faces = 76334
    Number of boundary faces = 13340

Processor 68
    Number of cells = 1099528
    Number of points = 1144529
    Number of faces shared with processor 12 = 4482
    Number of faces shared with processor 64 = 31250
    Number of faces shared with processor 69 = 8857
    Number of faces shared with processor 72 = 31464
    Number of processor patches = 4
    Number of processor faces = 76053
    Number of boundary faces = 13125

Processor 69
    Number of cells = 1115049
    Number of points = 1160194
    Number of faces shared with processor 13 = 4500
    Number of faces shared with processor 65 = 31250
    Number of faces shared with processor 68 = 8857
    Number of faces shared with processor 70 = 8983
    Number of faces shared with processor 72 = 1
    Number of faces shared with processor 73 = 31500
    Number of processor patches = 6
    Number of processor faces = 85091
    Number of boundary faces = 4375

Processor 70
    Number of cells = 1124864
    Number of points = 1170026
    Number of faces shared with processor 14 = 4500
    Number of faces shared with processor 66 = 31250
    Number of faces shared with processor 69 = 8983
    Number of faces shared with processor 71 = 9000
    Number of faces shared with processor 73 = 1
    Number of faces shared with processor 74 = 31282
    Number of processor patches = 6
    Number of processor faces = 85016
    Number of boundary faces = 4484

Processor 71
    Number of cells = 1125153
    Number of points = 1170369
    Number of faces shared with processor 11 = 1
    Number of faces shared with processor 15 = 4534
    Number of faces shared with processor 67 = 31321
    Number of faces shared with processor 70 = 9000
    Number of faces shared with processor 75 = 31250
    Number of processor patches = 5
    Number of processor faces = 76106
    Number of boundary faces = 13500

Processor 72
    Number of cells = 1119222
    Number of points = 1164384
    Number of faces shared with processor 12 = 1
    Number of faces shared with processor 16 = 4392
    Number of faces shared with processor 68 = 31464
    Number of faces shared with processor 69 = 1
    Number of faces shared with processor 73 = 8892
    Number of faces shared with processor 76 = 31250
    Number of processor patches = 6
    Number of processor faces = 76000
    Number of boundary faces = 13500

Processor 73
    Number of cells = 1104404
    Number of points = 1149533
    Number of faces shared with processor 17 = 4412
    Number of faces shared with processor 69 = 31500
    Number of faces shared with processor 70 = 1
    Number of faces shared with processor 72 = 8892
    Number of faces shared with processor 74 = 8803
    Number of faces shared with processor 77 = 31324
    Number of processor patches = 6
    Number of processor faces = 84932
    Number of boundary faces = 4500

Processor 74
    Number of cells = 1106386
    Number of points = 1151493
    Number of faces shared with processor 18 = 4500
    Number of faces shared with processor 70 = 31282
    Number of faces shared with processor 73 = 8803
    Number of faces shared with processor 75 = 8912
    Number of faces shared with processor 77 = 1
    Number of faces shared with processor 78 = 31499
    Number of processor patches = 6
    Number of processor faces = 84997
    Number of boundary faces = 4391

Processor 75
    Number of cells = 1121172
    Number of points = 1166334
    Number of faces shared with processor 19 = 4500
    Number of faces shared with processor 71 = 31250
    Number of faces shared with processor 74 = 8912
    Number of faces shared with processor 78 = 1
    Number of faces shared with processor 79 = 31424
    Number of processor patches = 5
    Number of processor faces = 76087
    Number of boundary faces = 13413

Processor 76
    Number of cells = 1125000
    Number of points = 1170162
    Number of faces shared with processor 20 = 4500
    Number of faces shared with processor 72 = 31250
    Number of faces shared with processor 77 = 9000
    Number of faces shared with processor 80 = 31250
    Number of processor patches = 4
    Number of processor faces = 76000
    Number of boundary faces = 13500

Processor 77
    Number of cells = 1124297
    Number of points = 1169459
    Number of faces shared with processor 17 = 1
    Number of faces shared with processor 21 = 4462
    Number of faces shared with processor 73 = 31324
    Number of faces shared with processor 74 = 1
    Number of faces shared with processor 76 = 9000
    Number of faces shared with processor 78 = 8962
    Number of faces shared with processor 81 = 31250
    Number of processor patches = 7
    Number of processor faces = 85000
    Number of boundary faces = 4500

Processor 78
    Number of cells = 1112506
    Number of points = 1157637
    Number of faces shared with processor 22 = 4378
    Number of faces shared with processor 74 = 31499
    Number of faces shared with processor 75 = 1
    Number of faces shared with processor 77 = 8962
    Number of faces shared with processor 79 = 8840
    Number of faces shared with processor 82 = 31256
    Number of processor patches = 6
    Number of processor faces = 84936
    Number of boundary faces = 4500

Processor 79
    Number of cells = 1105828
    Number of points = 1151043
    Number of faces shared with processor 23 = 4500
    Number of faces shared with processor 75 = 31424
    Number of faces shared with processor 78 = 8840
    Number of faces shared with processor 82 = 1
    Number of faces shared with processor 83 = 31499
    Number of processor patches = 5
    Number of processor faces = 76264
    Number of boundary faces = 13340

Processor 80
    Number of cells = 1125000
    Number of points = 1170162
    Number of faces shared with processor 24 = 4500
    Number of faces shared with processor 76 = 31250
    Number of faces shared with processor 81 = 9000
    Number of faces shared with processor 84 = 31250
    Number of processor patches = 4
    Number of processor faces = 76000
    Number of boundary faces = 13500

Processor 81
    Number of cells = 1125000
    Number of points = 1170162
    Number of faces shared with processor 25 = 4500
    Number of faces shared with processor 77 = 31250
    Number of faces shared with processor 80 = 9000
    Number of faces shared with processor 82 = 9000
    Number of faces shared with processor 85 = 31250
    Number of processor patches = 5
    Number of processor faces = 85000
    Number of boundary faces = 4500

Processor 82
    Number of cells = 1124994
    Number of points = 1170156
    Number of faces shared with processor 22 = 1
    Number of faces shared with processor 26 = 4496
    Number of faces shared with processor 78 = 31256
    Number of faces shared with processor 79 = 1
    Number of faces shared with processor 81 = 9000
    Number of faces shared with processor 83 = 8996
    Number of faces shared with processor 86 = 31250
    Number of processor patches = 7
    Number of processor faces = 85000
    Number of boundary faces = 4500

Processor 83
    Number of cells = 1116750
    Number of points = 1161908
    Number of faces shared with processor 27 = 4375
    Number of faces shared with processor 79 = 31499
    Number of faces shared with processor 82 = 8996
    Number of faces shared with processor 87 = 31250
    Number of processor patches = 4
    Number of processor faces = 76120
    Number of boundary faces = 13372

Processor 84
    Number of cells = 1093750
    Number of points = 1138536
    Number of faces shared with processor 28 = 4375
    Number of faces shared with processor 80 = 31250
    Number of faces shared with processor 85 = 8750
    Number of faces shared with processor 88 = 31250
    Number of processor patches = 4
    Number of processor faces = 75625
    Number of boundary faces = 13125

Processor 85
    Number of cells = 1101208
    Number of points = 1146238
    Number of faces shared with processor 29 = 4496
    Number of faces shared with processor 81 = 31250
    Number of faces shared with processor 84 = 8750
    Number of faces shared with processor 86 = 8872
    Number of faces shared with processor 89 = 31493
    Number of processor patches = 5
    Number of processor faces = 84861
    Number of boundary faces = 4375

Processor 86
    Number of cells = 1116875
    Number of points = 1162034
    Number of faces shared with processor 30 = 4500
    Number of faces shared with processor 82 = 31250
    Number of faces shared with processor 85 = 8872
    Number of faces shared with processor 87 = 8997
    Number of faces shared with processor 89 = 1
    Number of faces shared with processor 90 = 31499
    Number of processor patches = 6
    Number of processor faces = 85119
    Number of boundary faces = 4375

Processor 87
    Number of cells = 1124997
    Number of points = 1170159
    Number of faces shared with processor 31 = 4500
    Number of faces shared with processor 83 = 31250
    Number of faces shared with processor 86 = 8997
    Number of faces shared with processor 90 = 1
    Number of faces shared with processor 91 = 31254
    Number of processor patches = 5
    Number of processor faces = 76002
    Number of boundary faces = 13498

Processor 88
    Number of cells = 1125000
    Number of points = 1170162
    Number of faces shared with processor 32 = 4500
    Number of faces shared with processor 84 = 31250
    Number of faces shared with processor 89 = 9000
    Number of faces shared with processor 92 = 31250
    Number of processor patches = 4
    Number of processor faces = 76000
    Number of boundary faces = 13500

Processor 89
    Number of cells = 1117542
    Number of points = 1162704
    Number of faces shared with processor 29 = 1
    Number of faces shared with processor 33 = 4378
    Number of faces shared with processor 85 = 31493
    Number of faces shared with processor 86 = 1
    Number of faces shared with processor 88 = 9000
    Number of faces shared with processor 90 = 8877
    Number of faces shared with processor 93 = 31250
    Number of processor patches = 7
    Number of processor faces = 85000
    Number of boundary faces = 4500

Processor 90
    Number of cells = 1105770
    Number of points = 1150985
    Number of faces shared with processor 34 = 4462
    Number of faces shared with processor 86 = 31499
    Number of faces shared with processor 87 = 1
    Number of faces shared with processor 89 = 8877
    Number of faces shared with processor 91 = 8840
    Number of faces shared with processor 94 = 31425
    Number of processor patches = 6
    Number of processor faces = 85104
    Number of boundary faces = 4500

Processor 91
    Number of cells = 1112628
    Number of points = 1157758
    Number of faces shared with processor 35 = 4500
    Number of faces shared with processor 87 = 31254
    Number of faces shared with processor 90 = 8840
    Number of faces shared with processor 94 = 1
    Number of faces shared with processor 95 = 31499
    Number of processor patches = 5
    Number of processor faces = 76094
    Number of boundary faces = 13340

Processor 92
    Number of cells = 1125000
    Number of points = 1170162
    Number of faces shared with processor 36 = 4500
    Number of faces shared with processor 88 = 31250
    Number of faces shared with processor 93 = 9000
    Number of faces shared with processor 96 = 31250
    Number of processor patches = 4
    Number of processor faces = 76000
    Number of boundary faces = 13500

Processor 93
    Number of cells = 1125000
    Number of points = 1170162
    Number of faces shared with processor 37 = 4500
    Number of faces shared with processor 89 = 31250
    Number of faces shared with processor 92 = 9000
    Number of faces shared with processor 94 = 9000
    Number of faces shared with processor 97 = 31250
    Number of processor patches = 5
    Number of processor faces = 85000
    Number of boundary faces = 4500

Processor 94
    Number of cells = 1121105
    Number of points = 1166267
    Number of faces shared with processor 34 = 1
    Number of faces shared with processor 38 = 4412
    Number of faces shared with processor 90 = 31425
    Number of faces shared with processor 91 = 1
    Number of faces shared with processor 93 = 9000
    Number of faces shared with processor 95 = 8911
    Number of faces shared with processor 98 = 31250
    Number of processor patches = 7
    Number of processor faces = 85000
    Number of boundary faces = 4500

Processor 95
    Number of cells = 1106278
    Number of points = 1151386
    Number of faces shared with processor 39 = 4392
    Number of faces shared with processor 91 = 31499
    Number of faces shared with processor 94 = 8911
    Number of faces shared with processor 99 = 31284
    Number of processor patches = 4
    Number of processor faces = 76086
    Number of boundary faces = 13304

Processor 96
    Number of cells = 1099222
    Number of points = 1144222
    Number of faces shared with processor 40 = 4534
    Number of faces shared with processor 44 = 2
    Number of faces shared with processor 92 = 31250
    Number of faces shared with processor 97 = 8857
    Number of faces shared with processor 100 = 31425
    Number of processor patches = 5
    Number of processor faces = 76068
    Number of boundary faces = 13108

Processor 97
    Number of cells = 1115048
    Number of points = 1160193
    Number of faces shared with processor 41 = 4500
    Number of faces shared with processor 93 = 31250
    Number of faces shared with processor 96 = 8857
    Number of faces shared with processor 98 = 8983
    Number of faces shared with processor 100 = 1
    Number of faces shared with processor 101 = 31500
    Number of processor patches = 6
    Number of processor faces = 85091
    Number of boundary faces = 4375

Processor 98
    Number of cells = 1124864
    Number of points = 1170026
    Number of faces shared with processor 42 = 4500
    Number of faces shared with processor 94 = 31250
    Number of faces shared with processor 97 = 8983
    Number of faces shared with processor 99 = 9000
    Number of faces shared with processor 101 = 1
    Number of faces shared with processor 102 = 31282
    Number of processor patches = 6
    Number of processor faces = 85016
    Number of boundary faces = 4484

Processor 99
    Number of cells = 1124847
    Number of points = 1170009
    Number of faces shared with processor 39 = 1
    Number of faces shared with processor 43 = 4482
    Number of faces shared with processor 95 = 31284
    Number of faces shared with processor 98 = 9000
    Number of faces shared with processor 103 = 31250
    Number of processor patches = 5
    Number of processor faces = 76017
    Number of boundary faces = 13483

Processor 100
    Number of cells = 1116719
    Number of points = 1161843
    Number of faces shared with processor 40 = 1
    Number of faces shared with processor 44 = 4496
    Number of faces shared with processor 48 = 2
    Number of faces shared with processor 96 = 31425
    Number of faces shared with processor 97 = 1
    Number of faces shared with processor 101 = 8892
    Number of faces shared with processor 104 = 31143
    Number of processor patches = 7
    Number of processor faces = 75960
    Number of boundary faces = 13464

Processor 101
    Number of cells = 1104405
    Number of points = 1149534
    Number of faces shared with processor 45 = 4412
    Number of faces shared with processor 97 = 31500
    Number of faces shared with processor 98 = 1
    Number of faces shared with processor 100 = 8892
    Number of faces shared with processor 102 = 8803
    Number of faces shared with processor 105 = 31324
    Number of processor patches = 6
    Number of processor faces = 84932
    Number of boundary faces = 4500

Processor 102
    Number of cells = 1106386
    Number of points = 1151493
    Number of faces shared with processor 46 = 4500
    Number of faces shared with processor 98 = 31282
    Number of faces shared with processor 101 = 8803
    Number of faces shared with processor 103 = 8912
    Number of faces shared with processor 105 = 1
    Number of faces shared with processor 106 = 31499
    Number of processor patches = 6
    Number of processor faces = 84997
    Number of boundary faces = 4391

Processor 103
    Number of cells = 1121172
    Number of points = 1166334
    Number of faces shared with processor 47 = 4500
    Number of faces shared with processor 99 = 31250
    Number of faces shared with processor 102 = 8912
    Number of faces shared with processor 106 = 1
    Number of faces shared with processor 107 = 31424
    Number of processor patches = 5
    Number of processor faces = 76087
    Number of boundary faces = 13413

Processor 104
    Number of cells = 1120590
    Number of points = 1165618
    Number of faces shared with processor 48 = 4527
    Number of faces shared with processor 100 = 31143
    Number of faces shared with processor 105 = 8973
    Number of faces shared with processor 108 = 31125
    Number of processor patches = 4
    Number of processor faces = 75768
    Number of boundary faces = 13464

Processor 105
    Number of cells = 1123595
    Number of points = 1168757
    Number of faces shared with processor 45 = 1
    Number of faces shared with processor 48 = 1
    Number of faces shared with processor 49 = 4540
    Number of faces shared with processor 53 = 2
    Number of faces shared with processor 101 = 31324
    Number of faces shared with processor 102 = 1
    Number of faces shared with processor 104 = 8973
    Number of faces shared with processor 106 = 8962
    Number of faces shared with processor 109 = 31196
    Number of processor patches = 9
    Number of processor faces = 85000
    Number of boundary faces = 4500

Processor 106
    Number of cells = 1112506
    Number of points = 1157637
    Number of faces shared with processor 50 = 4378
    Number of faces shared with processor 102 = 31499
    Number of faces shared with processor 103 = 1
    Number of faces shared with processor 105 = 8962
    Number of faces shared with processor 107 = 8840
    Number of faces shared with processor 110 = 31256
    Number of processor patches = 6
    Number of processor faces = 84936
    Number of boundary faces = 4500

Processor 107
    Number of cells = 1105828
    Number of points = 1151043
    Number of faces shared with processor 51 = 4500
    Number of faces shared with processor 103 = 31424
    Number of faces shared with processor 106 = 8840
    Number of faces shared with processor 110 = 1
    Number of faces shared with processor 111 = 31499
    Number of processor patches = 5
    Number of processor faces = 76264
    Number of boundary faces = 13340

Processor 108
    Number of cells = 1120500
    Number of points = 1165500
    Number of faces shared with processor 52 = 4500
    Number of faces shared with processor 104 = 31125
    Number of faces shared with processor 109 = 8964
    Number of processor patches = 3
    Number of processor faces = 44589
    Number of boundary faces = 44589

Processor 109
    Number of cells = 1121796
    Number of points = 1166904
    Number of faces shared with processor 53 = 4606
    Number of faces shared with processor 105 = 31196
    Number of faces shared with processor 108 = 8964
    Number of faces shared with processor 110 = 9000
    Number of processor patches = 4
    Number of processor faces = 53766
    Number of boundary faces = 35626

Processor 110
    Number of cells = 1124994
    Number of points = 1170156
    Number of faces shared with processor 50 = 1
    Number of faces shared with processor 54 = 4496
    Number of faces shared with processor 106 = 31256
    Number of faces shared with processor 107 = 1
    Number of faces shared with processor 109 = 9000
    Number of faces shared with processor 111 = 8996
    Number of processor patches = 6
    Number of processor faces = 53750
    Number of boundary faces = 35750

Processor 111
    Number of cells = 1116750
    Number of points = 1161908
    Number of faces shared with processor 55 = 4375
    Number of faces shared with processor 107 = 31499
    Number of faces shared with processor 110 = 8996
    Number of processor patches = 3
    Number of processor faces = 44870
    Number of boundary faces = 44622

Number of processor faces = 4259546
Max number of cells = 1129497 (1.20293% above average 1.11607e+06)
Max number of processor patches = 9 (70.2703% above average 5.28571)
Max number of faces between processors = 85260 (12.0908% above average 76063.3)

Time = 0

Processor 0: field transfer
--> FOAM Warning : 
    From void* Foam::dlLibraryTable::openLibrary(const Foam::fileName&, bool)
    in file db/dynamicLibrary/dlLibraryTable/dlLibraryTable.C at line 188
    Could not load "libpetscFoam.so"
libpetscFoam.so: cannot open shared object file: No such file or directory
Processor 1: field transfer
--> FOAM Warning : 
    From void* Foam::dlLibraryTable::openLibrary(const Foam::fileName&, bool)
    in file db/dynamicLibrary/dlLibraryTable/dlLibraryTable.C at line 188
    Could not load "libpetscFoam.so"
libpetscFoam.so: cannot open shared object file: No such file or directory
Processor 2: field transfer
--> FOAM Warning : 
    From void* Foam::dlLibraryTable::openLibrary(const Foam::fileName&, bool)
    in file db/dynamicLibrary/dlLibraryTable/dlLibraryTable.C at line 188
    Could not load "libpetscFoam.so"
libpetscFoam.so: cannot open shared object file: No such file or directory
Processor 3: field transfer
--> FOAM Warning : 
    From void* Foam::dlLibraryTable::openLibrary(const Foam::fileName&, bool)
    in file db/dynamicLibrary/dlLibraryTable/dlLibraryTable.C at line 188
    Could not load "libpetscFoam.so"
libpetscFoam.so: cannot open shared object file: No such file or directory
Processor 4: field transfer
--> FOAM Warning : 
    From void* Foam::dlLibraryTable::openLibrary(const Foam::fileName&, bool)
    in file db/dynamicLibrary/dlLibraryTable/dlLibraryTable.C at line 188
    Could not load "libpetscFoam.so"
libpetscFoam.so: cannot open shared object file: No such file or directory
Processor 5: field transfer
--> FOAM Warning : 
    From void* Foam::dlLibraryTable::openLibrary(const Foam::fileName&, bool)
    in file db/dynamicLibrary/dlLibraryTable/dlLibraryTable.C at line 188
    Could not load "libpetscFoam.so"
libpetscFoam.so: cannot open shared object file: No such file or directory
Processor 6: field transfer
--> FOAM Warning : 
    From void* Foam::dlLibraryTable::openLibrary(const Foam::fileName&, bool)
    in file db/dynamicLibrary/dlLibraryTable/dlLibraryTable.C at line 188
    Could not load "libpetscFoam.so"
libpetscFoam.so: cannot open shared object file: No such file or directory
Processor 7: field transfer
--> FOAM Warning : 
    From void* Foam::dlLibraryTable::openLibrary(const Foam::fileName&, bool)
    in file db/dynamicLibrary/dlLibraryTable/dlLibraryTable.C at line 188
    Could not load "libpetscFoam.so"
libpetscFoam.so: cannot open shared object file: No such file or directory
Processor 8: field transfer
--> FOAM Warning : 
    From void* Foam::dlLibraryTable::openLibrary(const Foam::fileName&, bool)
    in file db/dynamicLibrary/dlLibraryTable/dlLibraryTable.C at line 188
    Could not load "libpetscFoam.so"
libpetscFoam.so: cannot open shared object file: No such file or directory
Processor 9: field transfer
--> FOAM Warning : 
    From void* Foam::dlLibraryTable::openLibrary(const Foam::fileName&, bool)
    in file db/dynamicLibrary/dlLibraryTable/dlLibraryTable.C at line 188
    Could not load "libpetscFoam.so"
libpetscFoam.so: cannot open shared object file: No such file or directory
Processor 10: field transfer
--> FOAM Warning : 
    From void* Foam::dlLibraryTable::openLibrary(const Foam::fileName&, bool)
    in file db/dynamicLibrary/dlLibraryTable/dlLibraryTable.C at line 188
    Could not load "libpetscFoam.so"
libpetscFoam.so: cannot open shared object file: No such file or directory
Processor 11: field transfer
--> FOAM Warning : 
    From void* Foam::dlLibraryTable::openLibrary(const Foam::fileName&, bool)
    in file db/dynamicLibrary/dlLibraryTable/dlLibraryTable.C at line 188
    Could not load "libpetscFoam.so"
libpetscFoam.so: cannot open shared object file: No such file or directory
Processor 12: field transfer
--> FOAM Warning : 
    From void* Foam::dlLibraryTable::openLibrary(const Foam::fileName&, bool)
    in file db/dynamicLibrary/dlLibraryTable/dlLibraryTable.C at line 188
    Could not load "libpetscFoam.so"
libpetscFoam.so: cannot open shared object file: No such file or directory
Processor 13: field transfer
--> FOAM Warning : 
    From void* Foam::dlLibraryTable::openLibrary(const Foam::fileName&, bool)
    in file db/dynamicLibrary/dlLibraryTable/dlLibraryTable.C at line 188
    Could not load "libpetscFoam.so"
libpetscFoam.so: cannot open shared object file: No such file or directory
Processor 14: field transfer
--> FOAM Warning : 
    From void* Foam::dlLibraryTable::openLibrary(const Foam::fileName&, bool)
    in file db/dynamicLibrary/dlLibraryTable/dlLibraryTable.C at line 188
    Could not load "libpetscFoam.so"
libpetscFoam.so: cannot open shared object file: No such file or directory
Processor 15: field transfer
--> FOAM Warning : 
    From void* Foam::dlLibraryTable::openLibrary(const Foam::fileName&, bool)
    in file db/dynamicLibrary/dlLibraryTable/dlLibraryTable.C at line 188
    Could not load "libpetscFoam.so"
libpetscFoam.so: cannot open shared object file: No such file or directory
Processor 16: field transfer
--> FOAM Warning : 
    From void* Foam::dlLibraryTable::openLibrary(const Foam::fileName&, bool)
    in file db/dynamicLibrary/dlLibraryTable/dlLibraryTable.C at line 188
    Could not load "libpetscFoam.so"
libpetscFoam.so: cannot open shared object file: No such file or directory
Processor 17: field transfer
--> FOAM Warning : 
    From void* Foam::dlLibraryTable::openLibrary(const Foam::fileName&, bool)
    in file db/dynamicLibrary/dlLibraryTable/dlLibraryTable.C at line 188
    Could not load "libpetscFoam.so"
libpetscFoam.so: cannot open shared object file: No such file or directory
Processor 18: field transfer
--> FOAM Warning : 
    From void* Foam::dlLibraryTable::openLibrary(const Foam::fileName&, bool)
    in file db/dynamicLibrary/dlLibraryTable/dlLibraryTable.C at line 188
    Could not load "libpetscFoam.so"
libpetscFoam.so: cannot open shared object file: No such file or directory
Processor 19: field transfer
--> FOAM Warning : 
    From void* Foam::dlLibraryTable::openLibrary(const Foam::fileName&, bool)
    in file db/dynamicLibrary/dlLibraryTable/dlLibraryTable.C at line 188
    Could not load "libpetscFoam.so"
libpetscFoam.so: cannot open shared object file: No such file or directory
Processor 20: field transfer
--> FOAM Warning : 
    From void* Foam::dlLibraryTable::openLibrary(const Foam::fileName&, bool)
    in file db/dynamicLibrary/dlLibraryTable/dlLibraryTable.C at line 188
    Could not load "libpetscFoam.so"
libpetscFoam.so: cannot open shared object file: No such file or directory
Processor 21: field transfer
--> FOAM Warning : 
    From void* Foam::dlLibraryTable::openLibrary(const Foam::fileName&, bool)
    in file db/dynamicLibrary/dlLibraryTable/dlLibraryTable.C at line 188
    Could not load "libpetscFoam.so"
libpetscFoam.so: cannot open shared object file: No such file or directory
Processor 22: field transfer
--> FOAM Warning : 
    From void* Foam::dlLibraryTable::openLibrary(const Foam::fileName&, bool)
    in file db/dynamicLibrary/dlLibraryTable/dlLibraryTable.C at line 188
    Could not load "libpetscFoam.so"
libpetscFoam.so: cannot open shared object file: No such file or directory
Processor 23: field transfer
--> FOAM Warning : 
    From void* Foam::dlLibraryTable::openLibrary(const Foam::fileName&, bool)
    in file db/dynamicLibrary/dlLibraryTable/dlLibraryTable.C at line 188
    Could not load "libpetscFoam.so"
libpetscFoam.so: cannot open shared object file: No such file or directory
Processor 24: field transfer
--> FOAM Warning : 
    From void* Foam::dlLibraryTable::openLibrary(const Foam::fileName&, bool)
    in file db/dynamicLibrary/dlLibraryTable/dlLibraryTable.C at line 188
    Could not load "libpetscFoam.so"
libpetscFoam.so: cannot open shared object file: No such file or directory
Processor 25: field transfer
--> FOAM Warning : 
    From void* Foam::dlLibraryTable::openLibrary(const Foam::fileName&, bool)
    in file db/dynamicLibrary/dlLibraryTable/dlLibraryTable.C at line 188
    Could not load "libpetscFoam.so"
libpetscFoam.so: cannot open shared object file: No such file or directory
Processor 26: field transfer
--> FOAM Warning : 
    From void* Foam::dlLibraryTable::openLibrary(const Foam::fileName&, bool)
    in file db/dynamicLibrary/dlLibraryTable/dlLibraryTable.C at line 188
    Could not load "libpetscFoam.so"
libpetscFoam.so: cannot open shared object file: No such file or directory
Processor 27: field transfer
--> FOAM Warning : 
    From void* Foam::dlLibraryTable::openLibrary(const Foam::fileName&, bool)
    in file db/dynamicLibrary/dlLibraryTable/dlLibraryTable.C at line 188
    Could not load "libpetscFoam.so"
libpetscFoam.so: cannot open shared object file: No such file or directory
Processor 28: field transfer
--> FOAM Warning : 
    From void* Foam::dlLibraryTable::openLibrary(const Foam::fileName&, bool)
    in file db/dynamicLibrary/dlLibraryTable/dlLibraryTable.C at line 188
    Could not load "libpetscFoam.so"
libpetscFoam.so: cannot open shared object file: No such file or directory
Processor 29: field transfer
--> FOAM Warning : 
    From void* Foam::dlLibraryTable::openLibrary(const Foam::fileName&, bool)
    in file db/dynamicLibrary/dlLibraryTable/dlLibraryTable.C at line 188
    Could not load "libpetscFoam.so"
libpetscFoam.so: cannot open shared object file: No such file or directory
Processor 30: field transfer
--> FOAM Warning : 
    From void* Foam::dlLibraryTable::openLibrary(const Foam::fileName&, bool)
    in file db/dynamicLibrary/dlLibraryTable/dlLibraryTable.C at line 188
    Could not load "libpetscFoam.so"
libpetscFoam.so: cannot open shared object file: No such file or directory
Processor 31: field transfer
--> FOAM Warning : 
    From void* Foam::dlLibraryTable::openLibrary(const Foam::fileName&, bool)
    in file db/dynamicLibrary/dlLibraryTable/dlLibraryTable.C at line 188
    Could not load "libpetscFoam.so"
libpetscFoam.so: cannot open shared object file: No such file or directory
Processor 32: field transfer
--> FOAM Warning : 
    From void* Foam::dlLibraryTable::openLibrary(const Foam::fileName&, bool)
    in file db/dynamicLibrary/dlLibraryTable/dlLibraryTable.C at line 188
    Could not load "libpetscFoam.so"
libpetscFoam.so: cannot open shared object file: No such file or directory
Processor 33: field transfer
--> FOAM Warning : 
    From void* Foam::dlLibraryTable::openLibrary(const Foam::fileName&, bool)
    in file db/dynamicLibrary/dlLibraryTable/dlLibraryTable.C at line 188
    Could not load "libpetscFoam.so"
libpetscFoam.so: cannot open shared object file: No such file or directory
Processor 34: field transfer
--> FOAM Warning : 
    From void* Foam::dlLibraryTable::openLibrary(const Foam::fileName&, bool)
    in file db/dynamicLibrary/dlLibraryTable/dlLibraryTable.C at line 188
    Could not load "libpetscFoam.so"
libpetscFoam.so: cannot open shared object file: No such file or directory
Processor 35: field transfer
--> FOAM Warning : 
    From void* Foam::dlLibraryTable::openLibrary(const Foam::fileName&, bool)
    in file db/dynamicLibrary/dlLibraryTable/dlLibraryTable.C at line 188
    Could not load "libpetscFoam.so"
libpetscFoam.so: cannot open shared object file: No such file or directory
Processor 36: field transfer
--> FOAM Warning : 
    From void* Foam::dlLibraryTable::openLibrary(const Foam::fileName&, bool)
    in file db/dynamicLibrary/dlLibraryTable/dlLibraryTable.C at line 188
    Could not load "libpetscFoam.so"
libpetscFoam.so: cannot open shared object file: No such file or directory
Processor 37: field transfer
--> FOAM Warning : 
    From void* Foam::dlLibraryTable::openLibrary(const Foam::fileName&, bool)
    in file db/dynamicLibrary/dlLibraryTable/dlLibraryTable.C at line 188
    Could not load "libpetscFoam.so"
libpetscFoam.so: cannot open shared object file: No such file or directory
Processor 38: field transfer
--> FOAM Warning : 
    From void* Foam::dlLibraryTable::openLibrary(const Foam::fileName&, bool)
    in file db/dynamicLibrary/dlLibraryTable/dlLibraryTable.C at line 188
    Could not load "libpetscFoam.so"
libpetscFoam.so: cannot open shared object file: No such file or directory
Processor 39: field transfer
--> FOAM Warning : 
    From void* Foam::dlLibraryTable::openLibrary(const Foam::fileName&, bool)
    in file db/dynamicLibrary/dlLibraryTable/dlLibraryTable.C at line 188
    Could not load "libpetscFoam.so"
libpetscFoam.so: cannot open shared object file: No such file or directory
Processor 40: field transfer
--> FOAM Warning : 
    From void* Foam::dlLibraryTable::openLibrary(const Foam::fileName&, bool)
    in file db/dynamicLibrary/dlLibraryTable/dlLibraryTable.C at line 188
    Could not load "libpetscFoam.so"
libpetscFoam.so: cannot open shared object file: No such file or directory
Processor 41: field transfer
--> FOAM Warning : 
    From void* Foam::dlLibraryTable::openLibrary(const Foam::fileName&, bool)
    in file db/dynamicLibrary/dlLibraryTable/dlLibraryTable.C at line 188
    Could not load "libpetscFoam.so"
libpetscFoam.so: cannot open shared object file: No such file or directory
Processor 42: field transfer
--> FOAM Warning : 
    From void* Foam::dlLibraryTable::openLibrary(const Foam::fileName&, bool)
    in file db/dynamicLibrary/dlLibraryTable/dlLibraryTable.C at line 188
    Could not load "libpetscFoam.so"
libpetscFoam.so: cannot open shared object file: No such file or directory
Processor 43: field transfer
--> FOAM Warning : 
    From void* Foam::dlLibraryTable::openLibrary(const Foam::fileName&, bool)
    in file db/dynamicLibrary/dlLibraryTable/dlLibraryTable.C at line 188
    Could not load "libpetscFoam.so"
libpetscFoam.so: cannot open shared object file: No such file or directory
Processor 44: field transfer
--> FOAM Warning : 
    From void* Foam::dlLibraryTable::openLibrary(const Foam::fileName&, bool)
    in file db/dynamicLibrary/dlLibraryTable/dlLibraryTable.C at line 188
    Could not load "libpetscFoam.so"
libpetscFoam.so: cannot open shared object file: No such file or directory
Processor 45: field transfer
--> FOAM Warning : 
    From void* Foam::dlLibraryTable::openLibrary(const Foam::fileName&, bool)
    in file db/dynamicLibrary/dlLibraryTable/dlLibraryTable.C at line 188
    Could not load "libpetscFoam.so"
libpetscFoam.so: cannot open shared object file: No such file or directory
Processor 46: field transfer
--> FOAM Warning : 
    From void* Foam::dlLibraryTable::openLibrary(const Foam::fileName&, bool)
    in file db/dynamicLibrary/dlLibraryTable/dlLibraryTable.C at line 188
    Could not load "libpetscFoam.so"
libpetscFoam.so: cannot open shared object file: No such file or directory
Processor 47: field transfer
--> FOAM Warning : 
    From void* Foam::dlLibraryTable::openLibrary(const Foam::fileName&, bool)
    in file db/dynamicLibrary/dlLibraryTable/dlLibraryTable.C at line 188
    Could not load "libpetscFoam.so"
libpetscFoam.so: cannot open shared object file: No such file or directory
Processor 48: field transfer
--> FOAM Warning : 
    From void* Foam::dlLibraryTable::openLibrary(const Foam::fileName&, bool)
    in file db/dynamicLibrary/dlLibraryTable/dlLibraryTable.C at line 188
    Could not load "libpetscFoam.so"
libpetscFoam.so: cannot open shared object file: No such file or directory
Processor 49: field transfer
--> FOAM Warning : 
    From void* Foam::dlLibraryTable::openLibrary(const Foam::fileName&, bool)
    in file db/dynamicLibrary/dlLibraryTable/dlLibraryTable.C at line 188
    Could not load "libpetscFoam.so"
libpetscFoam.so: cannot open shared object file: No such file or directory
Processor 50: field transfer
--> FOAM Warning : 
    From void* Foam::dlLibraryTable::openLibrary(const Foam::fileName&, bool)
    in file db/dynamicLibrary/dlLibraryTable/dlLibraryTable.C at line 188
    Could not load "libpetscFoam.so"
libpetscFoam.so: cannot open shared object file: No such file or directory
Processor 51: field transfer
--> FOAM Warning : 
    From void* Foam::dlLibraryTable::openLibrary(const Foam::fileName&, bool)
    in file db/dynamicLibrary/dlLibraryTable/dlLibraryTable.C at line 188
    Could not load "libpetscFoam.so"
libpetscFoam.so: cannot open shared object file: No such file or directory
Processor 52: field transfer
--> FOAM Warning : 
    From void* Foam::dlLibraryTable::openLibrary(const Foam::fileName&, bool)
    in file db/dynamicLibrary/dlLibraryTable/dlLibraryTable.C at line 188
    Could not load "libpetscFoam.so"
libpetscFoam.so: cannot open shared object file: No such file or directory
Processor 53: field transfer
--> FOAM Warning : 
    From void* Foam::dlLibraryTable::openLibrary(const Foam::fileName&, bool)
    in file db/dynamicLibrary/dlLibraryTable/dlLibraryTable.C at line 188
    Could not load "libpetscFoam.so"
libpetscFoam.so: cannot open shared object file: No such file or directory
Processor 54: field transfer
--> FOAM Warning : 
    From void* Foam::dlLibraryTable::openLibrary(const Foam::fileName&, bool)
    in file db/dynamicLibrary/dlLibraryTable/dlLibraryTable.C at line 188
    Could not load "libpetscFoam.so"
libpetscFoam.so: cannot open shared object file: No such file or directory
Processor 55: field transfer
--> FOAM Warning : 
    From void* Foam::dlLibraryTable::openLibrary(const Foam::fileName&, bool)
    in file db/dynamicLibrary/dlLibraryTable/dlLibraryTable.C at line 188
    Could not load "libpetscFoam.so"
libpetscFoam.so: cannot open shared object file: No such file or directory
Processor 56: field transfer
--> FOAM Warning : 
    From void* Foam::dlLibraryTable::openLibrary(const Foam::fileName&, bool)
    in file db/dynamicLibrary/dlLibraryTable/dlLibraryTable.C at line 188
    Could not load "libpetscFoam.so"
libpetscFoam.so: cannot open shared object file: No such file or directory
Processor 57: field transfer
--> FOAM Warning : 
    From void* Foam::dlLibraryTable::openLibrary(const Foam::fileName&, bool)
    in file db/dynamicLibrary/dlLibraryTable/dlLibraryTable.C at line 188
    Could not load "libpetscFoam.so"
libpetscFoam.so: cannot open shared object file: No such file or directory
Processor 58: field transfer
--> FOAM Warning : 
    From void* Foam::dlLibraryTable::openLibrary(const Foam::fileName&, bool)
    in file db/dynamicLibrary/dlLibraryTable/dlLibraryTable.C at line 188
    Could not load "libpetscFoam.so"
libpetscFoam.so: cannot open shared object file: No such file or directory
Processor 59: field transfer
--> FOAM Warning : 
    From void* Foam::dlLibraryTable::openLibrary(const Foam::fileName&, bool)
    in file db/dynamicLibrary/dlLibraryTable/dlLibraryTable.C at line 188
    Could not load "libpetscFoam.so"
libpetscFoam.so: cannot open shared object file: No such file or directory
Processor 60: field transfer
--> FOAM Warning : 
    From void* Foam::dlLibraryTable::openLibrary(const Foam::fileName&, bool)
    in file db/dynamicLibrary/dlLibraryTable/dlLibraryTable.C at line 188
    Could not load "libpetscFoam.so"
libpetscFoam.so: cannot open shared object file: No such file or directory
Processor 61: field transfer
--> FOAM Warning : 
    From void* Foam::dlLibraryTable::openLibrary(const Foam::fileName&, bool)
    in file db/dynamicLibrary/dlLibraryTable/dlLibraryTable.C at line 188
    Could not load "libpetscFoam.so"
libpetscFoam.so: cannot open shared object file: No such file or directory
Processor 62: field transfer
--> FOAM Warning : 
    From void* Foam::dlLibraryTable::openLibrary(const Foam::fileName&, bool)
    in file db/dynamicLibrary/dlLibraryTable/dlLibraryTable.C at line 188
    Could not load "libpetscFoam.so"
libpetscFoam.so: cannot open shared object file: No such file or directory
Processor 63: field transfer
--> FOAM Warning : 
    From void* Foam::dlLibraryTable::openLibrary(const Foam::fileName&, bool)
    in file db/dynamicLibrary/dlLibraryTable/dlLibraryTable.C at line 188
    Could not load "libpetscFoam.so"
libpetscFoam.so: cannot open shared object file: No such file or directory
Processor 64: field transfer
--> FOAM Warning : 
    From void* Foam::dlLibraryTable::openLibrary(const Foam::fileName&, bool)
    in file db/dynamicLibrary/dlLibraryTable/dlLibraryTable.C at line 188
    Could not load "libpetscFoam.so"
libpetscFoam.so: cannot open shared object file: No such file or directory
Processor 65: field transfer
--> FOAM Warning : 
    From void* Foam::dlLibraryTable::openLibrary(const Foam::fileName&, bool)
    in file db/dynamicLibrary/dlLibraryTable/dlLibraryTable.C at line 188
    Could not load "libpetscFoam.so"
libpetscFoam.so: cannot open shared object file: No such file or directory
Processor 66: field transfer
--> FOAM Warning : 
    From void* Foam::dlLibraryTable::openLibrary(const Foam::fileName&, bool)
    in file db/dynamicLibrary/dlLibraryTable/dlLibraryTable.C at line 188
    Could not load "libpetscFoam.so"
libpetscFoam.so: cannot open shared object file: No such file or directory
Processor 67: field transfer
--> FOAM Warning : 
    From void* Foam::dlLibraryTable::openLibrary(const Foam::fileName&, bool)
    in file db/dynamicLibrary/dlLibraryTable/dlLibraryTable.C at line 188
    Could not load "libpetscFoam.so"
libpetscFoam.so: cannot open shared object file: No such file or directory
Processor 68: field transfer
--> FOAM Warning : 
    From void* Foam::dlLibraryTable::openLibrary(const Foam::fileName&, bool)
    in file db/dynamicLibrary/dlLibraryTable/dlLibraryTable.C at line 188
    Could not load "libpetscFoam.so"
libpetscFoam.so: cannot open shared object file: No such file or directory
Processor 69: field transfer
--> FOAM Warning : 
    From void* Foam::dlLibraryTable::openLibrary(const Foam::fileName&, bool)
    in file db/dynamicLibrary/dlLibraryTable/dlLibraryTable.C at line 188
    Could not load "libpetscFoam.so"
libpetscFoam.so: cannot open shared object file: No such file or directory
Processor 70: field transfer
--> FOAM Warning : 
    From void* Foam::dlLibraryTable::openLibrary(const Foam::fileName&, bool)
    in file db/dynamicLibrary/dlLibraryTable/dlLibraryTable.C at line 188
    Could not load "libpetscFoam.so"
libpetscFoam.so: cannot open shared object file: No such file or directory
Processor 71: field transfer
--> FOAM Warning : 
    From void* Foam::dlLibraryTable::openLibrary(const Foam::fileName&, bool)
    in file db/dynamicLibrary/dlLibraryTable/dlLibraryTable.C at line 188
    Could not load "libpetscFoam.so"
libpetscFoam.so: cannot open shared object file: No such file or directory
Processor 72: field transfer
--> FOAM Warning : 
    From void* Foam::dlLibraryTable::openLibrary(const Foam::fileName&, bool)
    in file db/dynamicLibrary/dlLibraryTable/dlLibraryTable.C at line 188
    Could not load "libpetscFoam.so"
libpetscFoam.so: cannot open shared object file: No such file or directory
Processor 73: field transfer
--> FOAM Warning : 
    From void* Foam::dlLibraryTable::openLibrary(const Foam::fileName&, bool)
    in file db/dynamicLibrary/dlLibraryTable/dlLibraryTable.C at line 188
    Could not load "libpetscFoam.so"
libpetscFoam.so: cannot open shared object file: No such file or directory
Processor 74: field transfer
--> FOAM Warning : 
    From void* Foam::dlLibraryTable::openLibrary(const Foam::fileName&, bool)
    in file db/dynamicLibrary/dlLibraryTable/dlLibraryTable.C at line 188
    Could not load "libpetscFoam.so"
libpetscFoam.so: cannot open shared object file: No such file or directory
Processor 75: field transfer
--> FOAM Warning : 
    From void* Foam::dlLibraryTable::openLibrary(const Foam::fileName&, bool)
    in file db/dynamicLibrary/dlLibraryTable/dlLibraryTable.C at line 188
    Could not load "libpetscFoam.so"
libpetscFoam.so: cannot open shared object file: No such file or directory
Processor 76: field transfer
--> FOAM Warning : 
    From void* Foam::dlLibraryTable::openLibrary(const Foam::fileName&, bool)
    in file db/dynamicLibrary/dlLibraryTable/dlLibraryTable.C at line 188
    Could not load "libpetscFoam.so"
libpetscFoam.so: cannot open shared object file: No such file or directory
Processor 77: field transfer
--> FOAM Warning : 
    From void* Foam::dlLibraryTable::openLibrary(const Foam::fileName&, bool)
    in file db/dynamicLibrary/dlLibraryTable/dlLibraryTable.C at line 188
    Could not load "libpetscFoam.so"
libpetscFoam.so: cannot open shared object file: No such file or directory
Processor 78: field transfer
--> FOAM Warning : 
    From void* Foam::dlLibraryTable::openLibrary(const Foam::fileName&, bool)
    in file db/dynamicLibrary/dlLibraryTable/dlLibraryTable.C at line 188
    Could not load "libpetscFoam.so"
libpetscFoam.so: cannot open shared object file: No such file or directory
Processor 79: field transfer
--> FOAM Warning : 
    From void* Foam::dlLibraryTable::openLibrary(const Foam::fileName&, bool)
    in file db/dynamicLibrary/dlLibraryTable/dlLibraryTable.C at line 188
    Could not load "libpetscFoam.so"
libpetscFoam.so: cannot open shared object file: No such file or directory
Processor 80: field transfer
--> FOAM Warning : 
    From void* Foam::dlLibraryTable::openLibrary(const Foam::fileName&, bool)
    in file db/dynamicLibrary/dlLibraryTable/dlLibraryTable.C at line 188
    Could not load "libpetscFoam.so"
libpetscFoam.so: cannot open shared object file: No such file or directory
Processor 81: field transfer
--> FOAM Warning : 
    From void* Foam::dlLibraryTable::openLibrary(const Foam::fileName&, bool)
    in file db/dynamicLibrary/dlLibraryTable/dlLibraryTable.C at line 188
    Could not load "libpetscFoam.so"
libpetscFoam.so: cannot open shared object file: No such file or directory
Processor 82: field transfer
--> FOAM Warning : 
    From void* Foam::dlLibraryTable::openLibrary(const Foam::fileName&, bool)
    in file db/dynamicLibrary/dlLibraryTable/dlLibraryTable.C at line 188
    Could not load "libpetscFoam.so"
libpetscFoam.so: cannot open shared object file: No such file or directory
Processor 83: field transfer
--> FOAM Warning : 
    From void* Foam::dlLibraryTable::openLibrary(const Foam::fileName&, bool)
    in file db/dynamicLibrary/dlLibraryTable/dlLibraryTable.C at line 188
    Could not load "libpetscFoam.so"
libpetscFoam.so: cannot open shared object file: No such file or directory
Processor 84: field transfer
--> FOAM Warning : 
    From void* Foam::dlLibraryTable::openLibrary(const Foam::fileName&, bool)
    in file db/dynamicLibrary/dlLibraryTable/dlLibraryTable.C at line 188
    Could not load "libpetscFoam.so"
libpetscFoam.so: cannot open shared object file: No such file or directory
Processor 85: field transfer
--> FOAM Warning : 
    From void* Foam::dlLibraryTable::openLibrary(const Foam::fileName&, bool)
    in file db/dynamicLibrary/dlLibraryTable/dlLibraryTable.C at line 188
    Could not load "libpetscFoam.so"
libpetscFoam.so: cannot open shared object file: No such file or directory
Processor 86: field transfer
--> FOAM Warning : 
    From void* Foam::dlLibraryTable::openLibrary(const Foam::fileName&, bool)
    in file db/dynamicLibrary/dlLibraryTable/dlLibraryTable.C at line 188
    Could not load "libpetscFoam.so"
libpetscFoam.so: cannot open shared object file: No such file or directory
Processor 87: field transfer
--> FOAM Warning : 
    From void* Foam::dlLibraryTable::openLibrary(const Foam::fileName&, bool)
    in file db/dynamicLibrary/dlLibraryTable/dlLibraryTable.C at line 188
    Could not load "libpetscFoam.so"
libpetscFoam.so: cannot open shared object file: No such file or directory
Processor 88: field transfer
--> FOAM Warning : 
    From void* Foam::dlLibraryTable::openLibrary(const Foam::fileName&, bool)
    in file db/dynamicLibrary/dlLibraryTable/dlLibraryTable.C at line 188
    Could not load "libpetscFoam.so"
libpetscFoam.so: cannot open shared object file: No such file or directory
Processor 89: field transfer
--> FOAM Warning : 
    From void* Foam::dlLibraryTable::openLibrary(const Foam::fileName&, bool)
    in file db/dynamicLibrary/dlLibraryTable/dlLibraryTable.C at line 188
    Could not load "libpetscFoam.so"
libpetscFoam.so: cannot open shared object file: No such file or directory
Processor 90: field transfer
--> FOAM Warning : 
    From void* Foam::dlLibraryTable::openLibrary(const Foam::fileName&, bool)
    in file db/dynamicLibrary/dlLibraryTable/dlLibraryTable.C at line 188
    Could not load "libpetscFoam.so"
libpetscFoam.so: cannot open shared object file: No such file or directory
Processor 91: field transfer
--> FOAM Warning : 
    From void* Foam::dlLibraryTable::openLibrary(const Foam::fileName&, bool)
    in file db/dynamicLibrary/dlLibraryTable/dlLibraryTable.C at line 188
    Could not load "libpetscFoam.so"
libpetscFoam.so: cannot open shared object file: No such file or directory
Processor 92: field transfer
--> FOAM Warning : 
    From void* Foam::dlLibraryTable::openLibrary(const Foam::fileName&, bool)
    in file db/dynamicLibrary/dlLibraryTable/dlLibraryTable.C at line 188
    Could not load "libpetscFoam.so"
libpetscFoam.so: cannot open shared object file: No such file or directory
Processor 93: field transfer
--> FOAM Warning : 
    From void* Foam::dlLibraryTable::openLibrary(const Foam::fileName&, bool)
    in file db/dynamicLibrary/dlLibraryTable/dlLibraryTable.C at line 188
    Could not load "libpetscFoam.so"
libpetscFoam.so: cannot open shared object file: No such file or directory
Processor 94: field transfer
--> FOAM Warning : 
    From void* Foam::dlLibraryTable::openLibrary(const Foam::fileName&, bool)
    in file db/dynamicLibrary/dlLibraryTable/dlLibraryTable.C at line 188
    Could not load "libpetscFoam.so"
libpetscFoam.so: cannot open shared object file: No such file or directory
Processor 95: field transfer
--> FOAM Warning : 
    From void* Foam::dlLibraryTable::openLibrary(const Foam::fileName&, bool)
    in file db/dynamicLibrary/dlLibraryTable/dlLibraryTable.C at line 188
    Could not load "libpetscFoam.so"
libpetscFoam.so: cannot open shared object file: No such file or directory
Processor 96: field transfer
--> FOAM Warning : 
    From void* Foam::dlLibraryTable::openLibrary(const Foam::fileName&, bool)
    in file db/dynamicLibrary/dlLibraryTable/dlLibraryTable.C at line 188
    Could not load "libpetscFoam.so"
libpetscFoam.so: cannot open shared object file: No such file or directory
Processor 97: field transfer
--> FOAM Warning : 
    From void* Foam::dlLibraryTable::openLibrary(const Foam::fileName&, bool)
    in file db/dynamicLibrary/dlLibraryTable/dlLibraryTable.C at line 188
    Could not load "libpetscFoam.so"
libpetscFoam.so: cannot open shared object file: No such file or directory
Processor 98: field transfer
--> FOAM Warning : 
    From void* Foam::dlLibraryTable::openLibrary(const Foam::fileName&, bool)
    in file db/dynamicLibrary/dlLibraryTable/dlLibraryTable.C at line 188
    Could not load "libpetscFoam.so"
libpetscFoam.so: cannot open shared object file: No such file or directory
Processor 99: field transfer
--> FOAM Warning : 
    From void* Foam::dlLibraryTable::openLibrary(const Foam::fileName&, bool)
    in file db/dynamicLibrary/dlLibraryTable/dlLibraryTable.C at line 188
    Could not load "libpetscFoam.so"
libpetscFoam.so: cannot open shared object file: No such file or directory
Processor 100: field transfer
--> FOAM Warning : 
    From void* Foam::dlLibraryTable::openLibrary(const Foam::fileName&, bool)
    in file db/dynamicLibrary/dlLibraryTable/dlLibraryTable.C at line 188
    Could not load "libpetscFoam.so"
libpetscFoam.so: cannot open shared object file: No such file or directory
Processor 101: field transfer
--> FOAM Warning : 
    From void* Foam::dlLibraryTable::openLibrary(const Foam::fileName&, bool)
    in file db/dynamicLibrary/dlLibraryTable/dlLibraryTable.C at line 188
    Could not load "libpetscFoam.so"
libpetscFoam.so: cannot open shared object file: No such file or directory
Processor 102: field transfer
--> FOAM Warning : 
    From void* Foam::dlLibraryTable::openLibrary(const Foam::fileName&, bool)
    in file db/dynamicLibrary/dlLibraryTable/dlLibraryTable.C at line 188
    Could not load "libpetscFoam.so"
libpetscFoam.so: cannot open shared object file: No such file or directory
Processor 103: field transfer
--> FOAM Warning : 
    From void* Foam::dlLibraryTable::openLibrary(const Foam::fileName&, bool)
    in file db/dynamicLibrary/dlLibraryTable/dlLibraryTable.C at line 188
    Could not load "libpetscFoam.so"
libpetscFoam.so: cannot open shared object file: No such file or directory
Processor 104: field transfer
--> FOAM Warning : 
    From void* Foam::dlLibraryTable::openLibrary(const Foam::fileName&, bool)
    in file db/dynamicLibrary/dlLibraryTable/dlLibraryTable.C at line 188
    Could not load "libpetscFoam.so"
libpetscFoam.so: cannot open shared object file: No such file or directory
Processor 105: field transfer
--> FOAM Warning : 
    From void* Foam::dlLibraryTable::openLibrary(const Foam::fileName&, bool)
    in file db/dynamicLibrary/dlLibraryTable/dlLibraryTable.C at line 188
    Could not load "libpetscFoam.so"
libpetscFoam.so: cannot open shared object file: No such file or directory
Processor 106: field transfer
--> FOAM Warning : 
    From void* Foam::dlLibraryTable::openLibrary(const Foam::fileName&, bool)
    in file db/dynamicLibrary/dlLibraryTable/dlLibraryTable.C at line 188
    Could not load "libpetscFoam.so"
libpetscFoam.so: cannot open shared object file: No such file or directory
Processor 107: field transfer
--> FOAM Warning : 
    From void* Foam::dlLibraryTable::openLibrary(const Foam::fileName&, bool)
    in file db/dynamicLibrary/dlLibraryTable/dlLibraryTable.C at line 188
    Could not load "libpetscFoam.so"
libpetscFoam.so: cannot open shared object file: No such file or directory
Processor 108: field transfer
--> FOAM Warning : 
    From void* Foam::dlLibraryTable::openLibrary(const Foam::fileName&, bool)
    in file db/dynamicLibrary/dlLibraryTable/dlLibraryTable.C at line 188
    Could not load "libpetscFoam.so"
libpetscFoam.so: cannot open shared object file: No such file or directory
Processor 109: field transfer
--> FOAM Warning : 
    From void* Foam::dlLibraryTable::openLibrary(const Foam::fileName&, bool)
    in file db/dynamicLibrary/dlLibraryTable/dlLibraryTable.C at line 188
    Could not load "libpetscFoam.so"
libpetscFoam.so: cannot open shared object file: No such file or directory
Processor 110: field transfer
--> FOAM Warning : 
    From void* Foam::dlLibraryTable::openLibrary(const Foam::fileName&, bool)
    in file db/dynamicLibrary/dlLibraryTable/dlLibraryTable.C at line 188
    Could not load "libpetscFoam.so"
libpetscFoam.so: cannot open shared object file: No such file or directory
Processor 111: field transfer
--> FOAM Warning : 
    From void* Foam::dlLibraryTable::openLibrary(const Foam::fileName&, bool)
    in file db/dynamicLibrary/dlLibraryTable/dlLibraryTable.C at line 188
    Could not load "libpetscFoam.so"
libpetscFoam.so: cannot open shared object file: No such file or directory

End

