/*---------------------------------------------------------------------------*\
| =========                 |                                                 |
| \\      /  F ield         | OpenFOAM: The Open Source CFD Toolbox           |
|  \\    /   O peration     | Version:  2306                                  |
|   \\  /    A nd           | Website:  www.openfoam.com                      |
|    \\/     M anipulation  |                                                 |
\*---------------------------------------------------------------------------*/
Build  : a6e826bd55-20230630 OPENFOAM=2306 version=v2306
Arch   : "LSB;label=32;scalar=64"
Exec   : icoFoam -parallel -case /tmp/lidDrivenCavity/workspace/d0d0afc3a156894c555643881be52b1f/case
Date   : Jan 10 2024
Time   : 03:20:39
Host   : nla-gpu2.ianm.kit.edu
PID    : 406997
I/O    : uncollated
Case   : /tmp/lidDrivenCavity/workspace/d0d0afc3a156894c555643881be52b1f/case
nProcs : 32
Hosts  :
(
    (nla-gpu2.ianm.kit.edu 32)
)
Pstream initialized with:
    floatTransfer      : false
    nProcsSimpleSum    : 0
    nonBlockingExchange: 0 (tuning: 0)
    exchange algorithm : -1
    commsType          : nonBlocking
    polling iterations : 0
trapFpe: Floating point exception trapping enabled (FOAM_SIGFPE).
fileModificationChecking : Monitoring run-time modified files using timeStampMaster (fileModificationSkew 5, maxFileModificationPolls 20)
allowSystemOperations : Allowing user-supplied system call operations

// * * * * * * * * * * * * * * * * * * * * * * * * * * * * * * * * * * * * * //
Create time

--> FOAM Warning : 
    From void* Foam::dlLibraryTable::openLibrary(const Foam::fileName&, bool)
    in file db/dynamicLibrary/dlLibraryTable/dlLibraryTable.C at line 188
    Could not load "libpetscFoam.so"
libpetscFoam.so: cannot open shared object file: No such file or directory
Create mesh for time = 0


PISO: Operating solver in PISO mode

Reading transportProperties

Reading field p

Reading field U

Reading/calculating face flux field phi


Starting time loop

Time = 0.000166

Courant Number mean: 8.14055e-18 max: 3.11001e-14
[INFO] MatrixAssemblyU: 234.185 [ms]
DILUPBiCGStab:  Solving for Ux, Initial residual = 1, Final residual = 0.0163135, No Iterations 5
DILUPBiCGStab:  Solving for Uy:  solution singularity
DILUPBiCGStab:  Solving for Uz:  solution singularity
[INFO] MomentumPredictor: 881.419 [ms]
[INFO] MatrixAssemblyPI: 248.055 [ms]
[INFO] AdjustPhi: 13.182 [ms]
[INFO] ConstrainPressure: 0.007 [ms]
[INFO] MatrixAssemblyPII: 70.421 [ms]
DICPCG:  Solving for p, Initial residual = 1, Final residual = 9.59018e-05, No Iterations 919
[INFO] SolveP: 38772 [ms]
time step continuity errors : sum local = 3.87519e-09, global = 1.61477e-21, cumulative = 1.61477e-21
[INFO] ContinuityError: 25.882 [ms]
[INFO] CorrectBoundary: 1.2 [ms]
[INFO] PISOStep: 39211.1 [ms]
[INFO] MatrixAssemblyPI: 234.778 [ms]
[INFO] AdjustPhi: 10.952 [ms]
[INFO] ConstrainPressure: 0.003 [ms]
[INFO] MatrixAssemblyPII: 69.191 [ms]
DICPCG:  Solving for p, Initial residual = 0.809451, Final residual = 9.41297e-05, No Iterations 913
[INFO] SolveP: 38416.2 [ms]
time step continuity errors : sum local = 4.64285e-09, global = 6.87762e-22, cumulative = 2.30253e-21
[INFO] ContinuityError: 25.635 [ms]
[INFO] CorrectBoundary: 0.62 [ms]
[INFO] PISOStep: 38838.9 [ms]
[INFO] TimeStep: 79193.9 [ms]
ExecutionTime = 79.91 s  ClockTime = 81 s

Time = 0.000332

Courant Number mean: 0.0128238 max: 0.426584
[INFO] MatrixAssemblyU: 218.326 [ms]
DILUPBiCGStab:  Solving for Ux, Initial residual = 0.116949, Final residual = 0.00993041, No Iterations 5
DILUPBiCGStab:  Solving for Uy, Initial residual = 0.460126, Final residual = 0.0326301, No Iterations 5
DILUPBiCGStab:  Solving for Uz, Initial residual = 0.988818, Final residual = 0.0765337, No Iterations 5
[INFO] MomentumPredictor: 1651.19 [ms]
[INFO] MatrixAssemblyPI: 240.141 [ms]
[INFO] AdjustPhi: 13.411 [ms]
[INFO] ConstrainPressure: 0.002 [ms]
[INFO] MatrixAssemblyPII: 69.591 [ms]
DICPCG:  Solving for p, Initial residual = 0.881304, Final residual = 9.19478e-05, No Iterations 909
[INFO] SolveP: 38231.7 [ms]
time step continuity errors : sum local = 8.95375e-09, global = 1.06632e-21, cumulative = 3.36885e-21
[INFO] ContinuityError: 24.925 [ms]
[INFO] CorrectBoundary: 1.275 [ms]
[INFO] PISOStep: 38661.7 [ms]
[INFO] MatrixAssemblyPI: 232.075 [ms]
[INFO] AdjustPhi: 14.019 [ms]
[INFO] ConstrainPressure: 0.003 [ms]
[INFO] MatrixAssemblyPII: 69.337 [ms]
DICPCG:  Solving for p, Initial residual = 0.829026, Final residual = 9.24679e-05, No Iterations 908
[INFO] SolveP: 38242.2 [ms]
time step continuity errors : sum local = 9.17446e-09, global = 3.3431e-22, cumulative = 3.70316e-21
[INFO] ContinuityError: 25.542 [ms]
[INFO] CorrectBoundary: 0.704 [ms]
[INFO] PISOStep: 38666.6 [ms]
[INFO] TimeStep: 79224.7 [ms]
ExecutionTime = 158.69 s  ClockTime = 160 s

Time = 0.000498

Courant Number mean: 0.019784 max: 0.491998
[INFO] MatrixAssemblyU: 217.734 [ms]
DILUPBiCGStab:  Solving for Ux, Initial residual = 0.0544459, Final residual = 0.0037141, No Iterations 5
DILUPBiCGStab:  Solving for Uy, Initial residual = 0.226651, Final residual = 0.0167551, No Iterations 5
DILUPBiCGStab:  Solving for Uz, Initial residual = 0.849269, Final residual = 0.0549482, No Iterations 5
[INFO] MomentumPredictor: 1654.44 [ms]
[INFO] MatrixAssemblyPI: 241.94 [ms]
[INFO] AdjustPhi: 10.918 [ms]
[INFO] ConstrainPressure: 0.002 [ms]
[INFO] MatrixAssemblyPII: 69.579 [ms]
DICPCG:  Solving for p, Initial residual = 0.914901, Final residual = 9.60607e-05, No Iterations 428
[INFO] SolveP: 18072.8 [ms]
time step continuity errors : sum local = 1.06185e-08, global = 9.87582e-22, cumulative = 4.69074e-21
[INFO] ContinuityError: 25.494 [ms]
[INFO] CorrectBoundary: 0.765 [ms]
[INFO] PISOStep: 18502.3 [ms]
[INFO] MatrixAssemblyPI: 231.946 [ms]
[INFO] AdjustPhi: 15.042 [ms]
[INFO] ConstrainPressure: 0.003 [ms]
[INFO] MatrixAssemblyPII: 69.118 [ms]
DICPCG:  Solving for p, Initial residual = 0.883118, Final residual = 9.66241e-05, No Iterations 427
[INFO] SolveP: 18006.2 [ms]
time step continuity errors : sum local = 1.02144e-08, global = 5.47677e-22, cumulative = 5.23842e-21
[INFO] ContinuityError: 25.803 [ms]
[INFO] CorrectBoundary: 1.116 [ms]
[INFO] PISOStep: 18430 [ms]
[INFO] TimeStep: 38831.6 [ms]
ExecutionTime = 197.31 s  ClockTime = 199 s

Time = 0.000664

Courant Number mean: 0.0238679 max: 0.471987
[INFO] MatrixAssemblyU: 218.599 [ms]
DILUPBiCGStab:  Solving for Ux, Initial residual = 0.0385421, Final residual = 0.00298203, No Iterations 5
DILUPBiCGStab:  Solving for Uy, Initial residual = 0.174155, Final residual = 0.0136313, No Iterations 5
DILUPBiCGStab:  Solving for Uz, Initial residual = 0.736102, Final residual = 0.0397747, No Iterations 5
[INFO] MomentumPredictor: 1651.79 [ms]
[INFO] MatrixAssemblyPI: 240.463 [ms]
[INFO] AdjustPhi: 12.663 [ms]
[INFO] ConstrainPressure: 0.003 [ms]
[INFO] MatrixAssemblyPII: 70.24 [ms]
DICPCG:  Solving for p, Initial residual = 0.89254, Final residual = 9.97017e-05, No Iterations 425
[INFO] SolveP: 17909.8 [ms]
time step continuity errors : sum local = 1.20857e-08, global = 6.8196e-22, cumulative = 5.92038e-21
[INFO] ContinuityError: 25.816 [ms]
[INFO] CorrectBoundary: 1.153 [ms]
[INFO] PISOStep: 18340.8 [ms]
[INFO] MatrixAssemblyPI: 233.523 [ms]
[INFO] AdjustPhi: 12.304 [ms]
[INFO] ConstrainPressure: 0.003 [ms]
[INFO] MatrixAssemblyPII: 69.621 [ms]
DICPCG:  Solving for p, Initial residual = 0.832126, Final residual = 9.74319e-05, No Iterations 424
[INFO] SolveP: 17882.1 [ms]
time step continuity errors : sum local = 1.14811e-08, global = 5.14989e-22, cumulative = 6.43536e-21
[INFO] ContinuityError: 25.254 [ms]
[INFO] CorrectBoundary: 0.949 [ms]
[INFO] PISOStep: 18304.4 [ms]
[INFO] TimeStep: 38542.8 [ms]
ExecutionTime = 235.63 s  ClockTime = 237 s

Time = 0.00083

Courant Number mean: 0.0273794 max: 0.505296
[INFO] MatrixAssemblyU: 216.413 [ms]
DILUPBiCGStab:  Solving for Ux, Initial residual = 0.0324406, Final residual = 0.00255699, No Iterations 5
DILUPBiCGStab:  Solving for Uy, Initial residual = 0.130094, Final residual = 0.0115363, No Iterations 5
DILUPBiCGStab:  Solving for Uz, Initial residual = 0.686262, Final residual = 0.0352827, No Iterations 5
[INFO] MomentumPredictor: 1656.18 [ms]
[INFO] MatrixAssemblyPI: 239.765 [ms]
[INFO] AdjustPhi: 13.301 [ms]
[INFO] ConstrainPressure: 0.002 [ms]
[INFO] MatrixAssemblyPII: 68.242 [ms]
DICPCG:  Solving for p, Initial residual = 0.912105, Final residual = 9.75042e-05, No Iterations 902
[INFO] SolveP: 37924.8 [ms]
time step continuity errors : sum local = 1.09323e-08, global = -4.30773e-22, cumulative = 6.00459e-21
[INFO] ContinuityError: 24.991 [ms]
[INFO] CorrectBoundary: 1.164 [ms]
[INFO] PISOStep: 38355.4 [ms]
[INFO] MatrixAssemblyPI: 235.09 [ms]
[INFO] AdjustPhi: 11.163 [ms]
[INFO] ConstrainPressure: 0.002 [ms]
[INFO] MatrixAssemblyPII: 68.873 [ms]
DICPCG:  Solving for p, Initial residual = 0.873704, Final residual = 9.977e-05, No Iterations 862
[INFO] SolveP: 36393.4 [ms]
time step continuity errors : sum local = 1.10422e-08, global = -2.23819e-22, cumulative = 5.78077e-21
[INFO] ContinuityError: 26.155 [ms]
[INFO] CorrectBoundary: 0.868 [ms]
[INFO] PISOStep: 36816.7 [ms]
[INFO] TimeStep: 77071.9 [ms]
ExecutionTime = 312.28 s  ClockTime = 314 s

Time = 0.000996

Courant Number mean: 0.0301077 max: 0.478343
[INFO] MatrixAssemblyU: 215.258 [ms]
DILUPBiCGStab:  Solving for Ux, Initial residual = 0.0270936, Final residual = 0.00232087, No Iterations 5
DILUPBiCGStab:  Solving for Uy, Initial residual = 0.112267, Final residual = 0.00922595, No Iterations 5
DILUPBiCGStab:  Solving for Uz, Initial residual = 0.592802, Final residual = 0.0276546, No Iterations 5
[INFO] MomentumPredictor: 1667.83 [ms]
[INFO] MatrixAssemblyPI: 241.413 [ms]
[INFO] AdjustPhi: 11.587 [ms]
[INFO] ConstrainPressure: 0.002 [ms]
[INFO] MatrixAssemblyPII: 69.758 [ms]
DICPCG:  Solving for p, Initial residual = 0.890408, Final residual = 9.68895e-05, No Iterations 427
[INFO] SolveP: 18019 [ms]
time step continuity errors : sum local = 1.30195e-08, global = 1.76281e-21, cumulative = 7.54358e-21
[INFO] ContinuityError: 25.215 [ms]
[INFO] CorrectBoundary: 0.763 [ms]
[INFO] PISOStep: 18448.5 [ms]
[INFO] MatrixAssemblyPI: 234.582 [ms]
[INFO] AdjustPhi: 12.025 [ms]
[INFO] ConstrainPressure: 0.003 [ms]
[INFO] MatrixAssemblyPII: 66.787 [ms]
DICPCG:  Solving for p, Initial residual = 0.827172, Final residual = 9.83045e-05, No Iterations 420
[INFO] SolveP: 17700 [ms]
time step continuity errors : sum local = 1.2107e-08, global = 2.17955e-21, cumulative = 9.72314e-21
[INFO] ContinuityError: 25.15 [ms]
[INFO] CorrectBoundary: 1.056 [ms]
[INFO] PISOStep: 18123.8 [ms]
[INFO] TimeStep: 38482.5 [ms]
ExecutionTime = 350.53 s  ClockTime = 353 s

Time = 0.001162

Courant Number mean: 0.0325676 max: 0.512333
[INFO] MatrixAssemblyU: 217.082 [ms]
DILUPBiCGStab:  Solving for Ux, Initial residual = 0.0247337, Final residual = 0.00217542, No Iterations 5
DILUPBiCGStab:  Solving for Uy, Initial residual = 0.0987673, Final residual = 0.00845288, No Iterations 5
DILUPBiCGStab:  Solving for Uz, Initial residual = 0.57355, Final residual = 0.0275083, No Iterations 5
[INFO] MomentumPredictor: 1650.54 [ms]
[INFO] MatrixAssemblyPI: 242.069 [ms]
[INFO] AdjustPhi: 10.971 [ms]
[INFO] ConstrainPressure: 0.002 [ms]
[INFO] MatrixAssemblyPII: 70.067 [ms]
DICPCG:  Solving for p, Initial residual = 0.908028, Final residual = 9.91464e-05, No Iterations 902
[INFO] SolveP: 37975.8 [ms]
time step continuity errors : sum local = 1.11059e-08, global = 1.39826e-21, cumulative = 1.11214e-20
[INFO] ContinuityError: 26.164 [ms]
[INFO] CorrectBoundary: 0.769 [ms]
[INFO] PISOStep: 38406.2 [ms]
[INFO] MatrixAssemblyPI: 234.099 [ms]
[INFO] AdjustPhi: 12.458 [ms]
[INFO] ConstrainPressure: 0.002 [ms]
[INFO] MatrixAssemblyPII: 69.92 [ms]
DICPCG:  Solving for p, Initial residual = 0.862681, Final residual = 9.98747e-05, No Iterations 901
[INFO] SolveP: 38045.3 [ms]
time step continuity errors : sum local = 1.10671e-08, global = 3.95115e-22, cumulative = 1.15165e-20
[INFO] ContinuityError: 25.158 [ms]
[INFO] CorrectBoundary: 1.154 [ms]
[INFO] PISOStep: 38469.3 [ms]
[INFO] TimeStep: 78770.1 [ms]
ExecutionTime = 428.88 s  ClockTime = 432 s

Time = 0.001328

Courant Number mean: 0.034638 max: 0.481271
[INFO] MatrixAssemblyU: 217.456 [ms]
DILUPBiCGStab:  Solving for Ux, Initial residual = 0.0222697, Final residual = 0.002024, No Iterations 5
DILUPBiCGStab:  Solving for Uy, Initial residual = 0.0878187, Final residual = 0.00714729, No Iterations 5
DILUPBiCGStab:  Solving for Uz, Initial residual = 0.526775, Final residual = 0.0221552, No Iterations 5
[INFO] MomentumPredictor: 1650.68 [ms]
[INFO] MatrixAssemblyPI: 241.411 [ms]
[INFO] AdjustPhi: 11.059 [ms]
[INFO] ConstrainPressure: 0.003 [ms]
[INFO] MatrixAssemblyPII: 70.329 [ms]
DICPCG:  Solving for p, Initial residual = 0.886853, Final residual = 9.75406e-05, No Iterations 901
[INFO] SolveP: 37901.5 [ms]
time step continuity errors : sum local = 1.11314e-08, global = 4.27954e-22, cumulative = 1.19445e-20
[INFO] ContinuityError: 25.304 [ms]
[INFO] CorrectBoundary: 0.855 [ms]
[INFO] PISOStep: 38331.6 [ms]
[INFO] MatrixAssemblyPI: 234.282 [ms]
[INFO] AdjustPhi: 12.459 [ms]
[INFO] ConstrainPressure: 0.003 [ms]
[INFO] MatrixAssemblyPII: 69.909 [ms]
DICPCG:  Solving for p, Initial residual = 0.820847, Final residual = 9.95369e-05, No Iterations 899
[INFO] SolveP: 37856.4 [ms]
time step continuity errors : sum local = 1.15154e-08, global = 1.39895e-21, cumulative = 1.33434e-20
[INFO] ContinuityError: 26.763 [ms]
[INFO] CorrectBoundary: 1.143 [ms]
[INFO] PISOStep: 38280.4 [ms]
[INFO] TimeStep: 78507.1 [ms]
ExecutionTime = 506.94 s  ClockTime = 510 s

Time = 0.001494

Courant Number mean: 0.0365687 max: 0.518534
[INFO] MatrixAssemblyU: 216.602 [ms]
DILUPBiCGStab:  Solving for Ux, Initial residual = 0.0206824, Final residual = 0.0018883, No Iterations 5
DILUPBiCGStab:  Solving for Uy, Initial residual = 0.0826153, Final residual = 0.00672861, No Iterations 5
DILUPBiCGStab:  Solving for Uz, Initial residual = 0.520142, Final residual = 0.0214852, No Iterations 5
[INFO] MomentumPredictor: 1653.72 [ms]
[INFO] MatrixAssemblyPI: 241.165 [ms]
[INFO] AdjustPhi: 11.584 [ms]
[INFO] ConstrainPressure: 0.003 [ms]
[INFO] MatrixAssemblyPII: 70.044 [ms]
DICPCG:  Solving for p, Initial residual = 0.903997, Final residual = 9.79923e-05, No Iterations 819
[INFO] SolveP: 34469.2 [ms]
time step continuity errors : sum local = 1.094e-08, global = 8.42907e-22, cumulative = 1.41863e-20
[INFO] ContinuityError: 25.293 [ms]
[INFO] CorrectBoundary: 1.068 [ms]
[INFO] PISOStep: 34899.3 [ms]
[INFO] MatrixAssemblyPI: 231.793 [ms]
[INFO] AdjustPhi: 14.163 [ms]
[INFO] ConstrainPressure: 0.003 [ms]
[INFO] MatrixAssemblyPII: 69.718 [ms]
DICPCG:  Solving for p, Initial residual = 0.854192, Final residual = 9.65119e-05, No Iterations 816
[INFO] SolveP: 34389.1 [ms]
time step continuity errors : sum local = 1.06711e-08, global = 6.37102e-22, cumulative = 1.48234e-20
[INFO] ContinuityError: 26.903 [ms]
[INFO] CorrectBoundary: 0.869 [ms]
[INFO] PISOStep: 34812 [ms]
[INFO] TimeStep: 71608.7 [ms]
ExecutionTime = 578.17 s  ClockTime = 582 s

Time = 0.00166

Courant Number mean: 0.0382489 max: 0.483674
[INFO] MatrixAssemblyU: 213.004 [ms]
DILUPBiCGStab:  Solving for Ux, Initial residual = 0.0194842, Final residual = 0.00179742, No Iterations 5
DILUPBiCGStab:  Solving for Uy, Initial residual = 0.0742352, Final residual = 0.00583717, No Iterations 5
DILUPBiCGStab:  Solving for Uz, Initial residual = 0.497333, Final residual = 0.0202195, No Iterations 5
[INFO] MomentumPredictor: 1655.47 [ms]
[INFO] MatrixAssemblyPI: 240.822 [ms]
[INFO] AdjustPhi: 12.149 [ms]
[INFO] ConstrainPressure: 0.003 [ms]
[INFO] MatrixAssemblyPII: 69.343 [ms]
DICPCG:  Solving for p, Initial residual = 0.885613, Final residual = 9.8845e-05, No Iterations 893
[INFO] SolveP: 37550.7 [ms]
time step continuity errors : sum local = 1.13932e-08, global = 1.66572e-21, cumulative = 1.64891e-20
[INFO] ContinuityError: 26.616 [ms]
[INFO] CorrectBoundary: 0.95 [ms]
[INFO] PISOStep: 37980.3 [ms]
[INFO] MatrixAssemblyPI: 234.104 [ms]
[INFO] AdjustPhi: 12.758 [ms]
[INFO] ConstrainPressure: 0.003 [ms]
[INFO] MatrixAssemblyPII: 69.784 [ms]
DICPCG:  Solving for p, Initial residual = 0.816538, Final residual = 9.80227e-05, No Iterations 890
[INFO] SolveP: 37516.7 [ms]
time step continuity errors : sum local = 1.14403e-08, global = 3.49905e-22, cumulative = 1.6839e-20
[INFO] ContinuityError: 25.505 [ms]
[INFO] CorrectBoundary: 0.995 [ms]
[INFO] PISOStep: 37939.7 [ms]
[INFO] TimeStep: 77815.6 [ms]
ExecutionTime = 655.56 s  ClockTime = 659 s

Time = 0.001826

Courant Number mean: 0.0398567 max: 0.525149
[INFO] MatrixAssemblyU: 213.457 [ms]
DILUPBiCGStab:  Solving for Ux, Initial residual = 0.0183004, Final residual = 0.0016726, No Iterations 5
DILUPBiCGStab:  Solving for Uy, Initial residual = 0.0726498, Final residual = 0.00561983, No Iterations 5
DILUPBiCGStab:  Solving for Uz, Initial residual = 0.49894, Final residual = 0.0190594, No Iterations 5
[INFO] MomentumPredictor: 1653.59 [ms]
[INFO] MatrixAssemblyPI: 241.529 [ms]
[INFO] AdjustPhi: 11.13 [ms]
[INFO] ConstrainPressure: 0.002 [ms]
[INFO] MatrixAssemblyPII: 70.03 [ms]
DICPCG:  Solving for p, Initial residual = 0.904122, Final residual = 9.74627e-05, No Iterations 861
[INFO] SolveP: 36257 [ms]
time step continuity errors : sum local = 1.11652e-08, global = 4.5125e-22, cumulative = 1.72903e-20
[INFO] ContinuityError: 25.304 [ms]
[INFO] CorrectBoundary: 1.08 [ms]
[INFO] PISOStep: 36686.4 [ms]
[INFO] MatrixAssemblyPI: 235.19 [ms]
[INFO] AdjustPhi: 11.493 [ms]
[INFO] ConstrainPressure: 0.003 [ms]
[INFO] MatrixAssemblyPII: 69.866 [ms]
DICPCG:  Solving for p, Initial residual = 0.849451, Final residual = 9.88884e-05, No Iterations 855
[INFO] SolveP: 36080 [ms]
time step continuity errors : sum local = 1.12355e-08, global = 2.06346e-21, cumulative = 1.93538e-20
[INFO] ContinuityError: 25.909 [ms]
[INFO] CorrectBoundary: 1.528 [ms]
[INFO] PISOStep: 36504.2 [ms]
[INFO] TimeStep: 75084.8 [ms]
ExecutionTime = 730.25 s  ClockTime = 735 s

Time = 0.001992

Courant Number mean: 0.041277 max: 0.486775
[INFO] MatrixAssemblyU: 216.444 [ms]
DILUPBiCGStab:  Solving for Ux, Initial residual = 0.0176935, Final residual = 0.00161539, No Iterations 5
DILUPBiCGStab:  Solving for Uy, Initial residual = 0.066098, Final residual = 0.00494114, No Iterations 5
DILUPBiCGStab:  Solving for Uz, Initial residual = 0.485499, Final residual = 0.0181257, No Iterations 5
[INFO] MomentumPredictor: 1649.06 [ms]
[INFO] MatrixAssemblyPI: 240.924 [ms]
[INFO] AdjustPhi: 11.697 [ms]
[INFO] ConstrainPressure: 0.002 [ms]
[INFO] MatrixAssemblyPII: 70.205 [ms]
DICPCG:  Solving for p, Initial residual = 0.887152, Final residual = 9.87169e-05, No Iterations 892
[INFO] SolveP: 37444 [ms]
time step continuity errors : sum local = 1.17676e-08, global = 7.92359e-22, cumulative = 2.01461e-20
[INFO] ContinuityError: 26.355 [ms]
[INFO] CorrectBoundary: 0.889 [ms]
[INFO] PISOStep: 37873.5 [ms]
[INFO] MatrixAssemblyPI: 232.392 [ms]
[INFO] AdjustPhi: 14.145 [ms]
[INFO] ConstrainPressure: 0.003 [ms]
[INFO] MatrixAssemblyPII: 69.981 [ms]
DICPCG:  Solving for p, Initial residual = 0.816628, Final residual = 9.84913e-05, No Iterations 889
[INFO] SolveP: 37336.8 [ms]
time step continuity errors : sum local = 1.1872e-08, global = 6.85543e-22, cumulative = 2.08317e-20
[INFO] ContinuityError: 26.696 [ms]
[INFO] CorrectBoundary: 0.605 [ms]
[INFO] PISOStep: 37760.8 [ms]
[INFO] TimeStep: 77527.1 [ms]
ExecutionTime = 807.37 s  ClockTime = 812 s

Time = 0.002158

Courant Number mean: 0.0426641 max: 0.532752
[INFO] MatrixAssemblyU: 218.113 [ms]
DILUPBiCGStab:  Solving for Ux, Initial residual = 0.0167766, Final residual = 0.00150324, No Iterations 5
DILUPBiCGStab:  Solving for Uy, Initial residual = 0.0661822, Final residual = 0.00485335, No Iterations 5
DILUPBiCGStab:  Solving for Uz, Initial residual = 0.492316, Final residual = 0.0182927, No Iterations 5
[INFO] MomentumPredictor: 1649.63 [ms]
[INFO] MatrixAssemblyPI: 242.012 [ms]
[INFO] AdjustPhi: 10.964 [ms]
[INFO] ConstrainPressure: 0.002 [ms]
[INFO] MatrixAssemblyPII: 70.138 [ms]
DICPCG:  Solving for p, Initial residual = 0.904824, Final residual = 9.81208e-05, No Iterations 874
[INFO] SolveP: 36745.8 [ms]
time step continuity errors : sum local = 1.16934e-08, global = -3.11475e-22, cumulative = 2.05202e-20
[INFO] ContinuityError: 25.965 [ms]
[INFO] CorrectBoundary: 1.135 [ms]
[INFO] PISOStep: 37176.2 [ms]
[INFO] MatrixAssemblyPI: 235.07 [ms]
[INFO] AdjustPhi: 11.349 [ms]
[INFO] ConstrainPressure: 0.004 [ms]
[INFO] MatrixAssemblyPII: 69.869 [ms]
DICPCG:  Solving for p, Initial residual = 0.846638, Final residual = 9.95707e-05, No Iterations 870
[INFO] SolveP: 36674.2 [ms]
time step continuity errors : sum local = 1.17856e-08, global = -2.80091e-22, cumulative = 2.02401e-20
[INFO] ContinuityError: 26.12 [ms]
[INFO] CorrectBoundary: 0.943 [ms]
[INFO] PISOStep: 37097.1 [ms]
[INFO] TimeStep: 76168 [ms]
ExecutionTime = 883.13 s  ClockTime = 888 s

Time = 0.002324

Courant Number mean: 0.0438975 max: 0.489828
[INFO] MatrixAssemblyU: 215.424 [ms]
DILUPBiCGStab:  Solving for Ux, Initial residual = 0.0165222, Final residual = 0.00147333, No Iterations 5
DILUPBiCGStab:  Solving for Uy, Initial residual = 0.0609539, Final residual = 0.00430482, No Iterations 5
DILUPBiCGStab:  Solving for Uz, Initial residual = 0.482601, Final residual = 0.0171242, No Iterations 5
[INFO] MomentumPredictor: 1651.86 [ms]
[INFO] MatrixAssemblyPI: 239.335 [ms]
[INFO] AdjustPhi: 13.121 [ms]
[INFO] ConstrainPressure: 0.003 [ms]
[INFO] MatrixAssemblyPII: 70.12 [ms]
DICPCG:  Solving for p, Initial residual = 0.889504, Final residual = 9.93462e-05, No Iterations 888
[INFO] SolveP: 37348.6 [ms]
time step continuity errors : sum local = 1.23316e-08, global = 7.4693e-22, cumulative = 2.0987e-20
[INFO] ContinuityError: 25.11 [ms]
[INFO] CorrectBoundary: 1.187 [ms]
[INFO] PISOStep: 37781 [ms]
[INFO] MatrixAssemblyPI: 234.093 [ms]
[INFO] AdjustPhi: 11.927 [ms]
[INFO] ConstrainPressure: 0.003 [ms]
[INFO] MatrixAssemblyPII: 68.442 [ms]
DICPCG:  Solving for p, Initial residual = 0.817827, Final residual = 9.87806e-05, No Iterations 886
[INFO] SolveP: 37317.8 [ms]
time step continuity errors : sum local = 1.23813e-08, global = 7.3534e-22, cumulative = 2.17224e-20
[INFO] ContinuityError: 25.932 [ms]
[INFO] CorrectBoundary: 0.725 [ms]
[INFO] PISOStep: 37740.2 [ms]
[INFO] TimeStep: 77415.9 [ms]
ExecutionTime = 960.12 s  ClockTime = 966 s

Time = 0.00249

Courant Number mean: 0.0451241 max: 0.541386
[INFO] MatrixAssemblyU: 215.772 [ms]
DILUPBiCGStab:  Solving for Ux, Initial residual = 0.0157885, Final residual = 0.00136614, No Iterations 5
DILUPBiCGStab:  Solving for Uy, Initial residual = 0.0618491, Final residual = 0.00429439, No Iterations 5
DILUPBiCGStab:  Solving for Uz, Initial residual = 0.492129, Final residual = 0.0176448, No Iterations 5
[INFO] MomentumPredictor: 1651.89 [ms]
[INFO] MatrixAssemblyPI: 239.862 [ms]
[INFO] AdjustPhi: 12.806 [ms]
[INFO] ConstrainPressure: 0.003 [ms]
[INFO] MatrixAssemblyPII: 69.821 [ms]
DICPCG:  Solving for p, Initial residual = 0.905656, Final residual = 9.73309e-05, No Iterations 875
[INFO] SolveP: 36864.4 [ms]
time step continuity errors : sum local = 1.21196e-08, global = 1.74209e-21, cumulative = 2.34644e-20
[INFO] ContinuityError: 25.267 [ms]
[INFO] CorrectBoundary: 0.611 [ms]
[INFO] PISOStep: 37293.5 [ms]
[INFO] MatrixAssemblyPI: 235.838 [ms]
[INFO] AdjustPhi: 11.387 [ms]
[INFO] ConstrainPressure: 0.003 [ms]
[INFO] MatrixAssemblyPII: 69.692 [ms]
DICPCG:  Solving for p, Initial residual = 0.844473, Final residual = 9.96727e-05, No Iterations 872
[INFO] SolveP: 36806 [ms]
time step continuity errors : sum local = 1.23434e-08, global = -1.59565e-22, cumulative = 2.33049e-20
[INFO] ContinuityError: 27.213 [ms]
[INFO] CorrectBoundary: 1.073 [ms]
[INFO] PISOStep: 37234.8 [ms]
[INFO] TimeStep: 76423.1 [ms]
ExecutionTime = 1036.14 s  ClockTime = 1042 s

Time = 0.002656

Courant Number mean: 0.046215 max: 0.492934
[INFO] MatrixAssemblyU: 217.974 [ms]
DILUPBiCGStab:  Solving for Ux, Initial residual = 0.0157513, Final residual = 0.00135719, No Iterations 5
DILUPBiCGStab:  Solving for Uy, Initial residual = 0.0577329, Final residual = 0.00383942, No Iterations 5
DILUPBiCGStab:  Solving for Uz, Initial residual = 0.485557, Final residual = 0.0166266, No Iterations 5
[INFO] MomentumPredictor: 1646.33 [ms]
[INFO] MatrixAssemblyPI: 241.146 [ms]
[INFO] AdjustPhi: 11.739 [ms]
[INFO] ConstrainPressure: 0.003 [ms]
[INFO] MatrixAssemblyPII: 70.088 [ms]
DICPCG:  Solving for p, Initial residual = 0.892347, Final residual = 9.803e-05, No Iterations 888
[INFO] SolveP: 37467.6 [ms]
time step continuity errors : sum local = 1.27009e-08, global = -8.05946e-22, cumulative = 2.24989e-20
[INFO] ContinuityError: 33.908 [ms]
[INFO] CorrectBoundary: 1.263 [ms]
[INFO] PISOStep: 37916.4 [ms]
[INFO] MatrixAssemblyPI: 233.517 [ms]
[INFO] AdjustPhi: 12.924 [ms]
[INFO] ConstrainPressure: 0.003 [ms]
[INFO] MatrixAssemblyPII: 69.733 [ms]
DICPCG:  Solving for p, Initial residual = 0.81974, Final residual = 9.92944e-05, No Iterations 881
[INFO] SolveP: 37108.2 [ms]
time step continuity errors : sum local = 1.29741e-08, global = 2.59717e-22, cumulative = 2.27587e-20
[INFO] ContinuityError: 29.752 [ms]
[INFO] CorrectBoundary: 0.799 [ms]
[INFO] PISOStep: 37541.4 [ms]
[INFO] TimeStep: 77349 [ms]
ExecutionTime = 1113.07 s  ClockTime = 1119 s

Time = 0.002822

Courant Number mean: 0.0473182 max: 0.551478
[INFO] MatrixAssemblyU: 219.755 [ms]
DILUPBiCGStab:  Solving for Ux, Initial residual = 0.0151883, Final residual = 0.00125694, No Iterations 5
DILUPBiCGStab:  Solving for Uy, Initial residual = 0.0590726, Final residual = 0.00387774, No Iterations 5
DILUPBiCGStab:  Solving for Uz, Initial residual = 0.496263, Final residual = 0.0172641, No Iterations 5
[INFO] MomentumPredictor: 1650.98 [ms]
[INFO] MatrixAssemblyPI: 241.138 [ms]
[INFO] AdjustPhi: 11.503 [ms]
[INFO] ConstrainPressure: 0.003 [ms]
[INFO] MatrixAssemblyPII: 69.137 [ms]
DICPCG:  Solving for p, Initial residual = 0.906897, Final residual = 9.73072e-05, No Iterations 875
[INFO] SolveP: 36861.1 [ms]
time step continuity errors : sum local = 1.26975e-08, global = 5.8252e-22, cumulative = 2.33412e-20
[INFO] ContinuityError: 25.53 [ms]
[INFO] CorrectBoundary: 1.333 [ms]
[INFO] PISOStep: 37290.7 [ms]
[INFO] MatrixAssemblyPI: 233.345 [ms]
[INFO] AdjustPhi: 13.143 [ms]
[INFO] ConstrainPressure: 0.003 [ms]
[INFO] MatrixAssemblyPII: 69.825 [ms]
DICPCG:  Solving for p, Initial residual = 0.842737, Final residual = 9.98833e-05, No Iterations 872
[INFO] SolveP: 36793.6 [ms]
time step continuity errors : sum local = 1.29782e-08, global = 8.9857e-22, cumulative = 2.42397e-20
[INFO] ContinuityError: 27.452 [ms]
[INFO] CorrectBoundary: 0.928 [ms]
[INFO] PISOStep: 37218.5 [ms]
[INFO] TimeStep: 76407 [ms]
ExecutionTime = 1189.06 s  ClockTime = 1196 s

Time = 0.002988

Courant Number mean: 0.0482967 max: 0.496256
[INFO] MatrixAssemblyU: 217.397 [ms]
DILUPBiCGStab:  Solving for Ux, Initial residual = 0.0152864, Final residual = 0.00126049, No Iterations 5
DILUPBiCGStab:  Solving for Uy, Initial residual = 0.0559075, Final residual = 0.00349232, No Iterations 5
DILUPBiCGStab:  Solving for Uz, Initial residual = 0.492052, Final residual = 0.0163643, No Iterations 5
[INFO] MomentumPredictor: 1648.91 [ms]
[INFO] MatrixAssemblyPI: 240.3 [ms]
[INFO] AdjustPhi: 12.318 [ms]
[INFO] ConstrainPressure: 0.002 [ms]
[INFO] MatrixAssemblyPII: 70.207 [ms]
DICPCG:  Solving for p, Initial residual = 0.896749, Final residual = 9.9322e-05, No Iterations 877
[INFO] SolveP: 36902.1 [ms]
time step continuity errors : sum local = 1.34774e-08, global = 1.30661e-21, cumulative = 2.55464e-20
[INFO] ContinuityError: 24.977 [ms]
[INFO] CorrectBoundary: 0.765 [ms]
[INFO] PISOStep: 37331.2 [ms]
[INFO] MatrixAssemblyPI: 234.157 [ms]
[INFO] AdjustPhi: 12.825 [ms]
[INFO] ConstrainPressure: 0.002 [ms]
[INFO] MatrixAssemblyPII: 69.837 [ms]
DICPCG:  Solving for p, Initial residual = 0.822831, Final residual = 9.67303e-05, No Iterations 876
[INFO] SolveP: 36875.1 [ms]
time step continuity errors : sum local = 1.3223e-08, global = -1.39037e-22, cumulative = 2.54073e-20
[INFO] ContinuityError: 25.504 [ms]
[INFO] CorrectBoundary: 0.828 [ms]
[INFO] PISOStep: 37298.5 [ms]
[INFO] TimeStep: 76523.4 [ms]
ExecutionTime = 1265.17 s  ClockTime = 1272 s

Time = 0.003154

Courant Number mean: 0.049303 max: 0.563003
[INFO] MatrixAssemblyU: 216.6 [ms]
DILUPBiCGStab:  Solving for Ux, Initial residual = 0.0148962, Final residual = 0.00117084, No Iterations 5
DILUPBiCGStab:  Solving for Uy, Initial residual = 0.0575306, Final residual = 0.00356417, No Iterations 5
DILUPBiCGStab:  Solving for Uz, Initial residual = 0.503498, Final residual = 0.0171353, No Iterations 5
[INFO] MomentumPredictor: 1663.15 [ms]
[INFO] MatrixAssemblyPI: 242.016 [ms]
[INFO] AdjustPhi: 10.751 [ms]
[INFO] ConstrainPressure: 0.003 [ms]
[INFO] MatrixAssemblyPII: 69.706 [ms]
DICPCG:  Solving for p, Initial residual = 0.909503, Final residual = 9.83614e-05, No Iterations 875
[INFO] SolveP: 36802.7 [ms]
time step continuity errors : sum local = 1.35177e-08, global = 8.52253e-22, cumulative = 2.62596e-20
[INFO] ContinuityError: 25.017 [ms]
[INFO] CorrectBoundary: 0.833 [ms]
[INFO] PISOStep: 37233.1 [ms]
[INFO] MatrixAssemblyPI: 233.379 [ms]
[INFO] AdjustPhi: 12.637 [ms]
[INFO] ConstrainPressure: 0.003 [ms]
[INFO] MatrixAssemblyPII: 69.784 [ms]
DICPCG:  Solving for p, Initial residual = 0.842432, Final residual = 9.83373e-05, No Iterations 873
[INFO] SolveP: 36820.9 [ms]
time step continuity errors : sum local = 1.34712e-08, global = 1.24303e-21, cumulative = 2.75026e-20
[INFO] ContinuityError: 25.024 [ms]
[INFO] CorrectBoundary: 0.924 [ms]
[INFO] PISOStep: 37244.2 [ms]
[INFO] TimeStep: 76384.5 [ms]
ExecutionTime = 1341.14 s  ClockTime = 1349 s

Time = 0.00332

Courant Number mean: 0.0501892 max: 0.499846
[INFO] MatrixAssemblyU: 219.513 [ms]
DILUPBiCGStab:  Solving for Ux, Initial residual = 0.0150933, Final residual = 0.00118033, No Iterations 5
DILUPBiCGStab:  Solving for Uy, Initial residual = 0.0551228, Final residual = 0.00323267, No Iterations 5
DILUPBiCGStab:  Solving for Uz, Initial residual = 0.501064, Final residual = 0.0162512, No Iterations 5
[INFO] MomentumPredictor: 1649.3 [ms]
[INFO] MatrixAssemblyPI: 239.69 [ms]
[INFO] AdjustPhi: 13.622 [ms]
[INFO] ConstrainPressure: 0.002 [ms]
[INFO] MatrixAssemblyPII: 70.059 [ms]
DICPCG:  Solving for p, Initial residual = 0.902201, Final residual = 9.92514e-05, No Iterations 886
[INFO] SolveP: 37253.7 [ms]
time step continuity errors : sum local = 1.41711e-08, global = -1.28601e-23, cumulative = 2.74897e-20
[INFO] ContinuityError: 24.935 [ms]
[INFO] CorrectBoundary: 1.358 [ms]
[INFO] PISOStep: 37684 [ms]
[INFO] MatrixAssemblyPI: 234.906 [ms]
[INFO] AdjustPhi: 11.708 [ms]
[INFO] ConstrainPressure: 0.002 [ms]
[INFO] MatrixAssemblyPII: 69.474 [ms]
DICPCG:  Solving for p, Initial residual = 0.827077, Final residual = 9.79438e-05, No Iterations 876
[INFO] SolveP: 36898.1 [ms]
time step continuity errors : sum local = 1.40751e-08, global = 1.58748e-21, cumulative = 2.90772e-20
[INFO] ContinuityError: 24.922 [ms]
[INFO] CorrectBoundary: 0.828 [ms]
[INFO] PISOStep: 37321.7 [ms]
[INFO] TimeStep: 76901.2 [ms]
ExecutionTime = 1417.62 s  ClockTime = 1426 s

End

Finalising parallel run
