/*---------------------------------------------------------------------------*\
| =========                 |                                                 |
| \\      /  F ield         | OpenFOAM: The Open Source CFD Toolbox           |
|  \\    /   O peration     | Version:  v2106                                 |
|   \\  /    A nd           | Website:  www.openfoam.com                      |
|    \\/     M anipulation  |                                                 |
\*---------------------------------------------------------------------------*/
Build  : f815a12bba-20210902 OPENFOAM=2106
Arch   : "LSB;label=32;scalar=64"
Exec   : simpleFoam -parallel -case /home/greole/data/code/exasim_project/micro_benchmarks/WindsorBody/workspace/d551cb40b6675886050a40e015b59ab8/case
Date   : Jun 25 2023
Time   : 18:44:57
Host   : nla-gpu2.ianm.kit.edu
PID    : 3733983
I/O    : uncollated
Case   : /home/greole/data/code/exasim_project/micro_benchmarks/WindsorBody/workspace/d551cb40b6675886050a40e015b59ab8/case
nProcs : 16
Hosts  :
(
    (nla-gpu2.ianm.kit.edu 16)
)
Pstream initialized with:
    floatTransfer      : 0
    nProcsSimpleSum    : 0
    commsType          : nonBlocking
    polling iterations : 0
trapFpe: Floating point exception trapping enabled (FOAM_SIGFPE).
fileModificationChecking : Monitoring run-time modified files using timeStampMaster (fileModificationSkew 5, maxFileModificationPolls 20)
allowSystemOperations : Allowing user-supplied system call operations

// * * * * * * * * * * * * * * * * * * * * * * * * * * * * * * * * * * * * * //
Create time

Create mesh for time = 0


SIMPLE: convergence criteria
    field p	 tolerance 1e-08
    field U	 tolerance 1e-08
    field k	 tolerance 1e-08
    field omega	 tolerance 1e-08
    field nuTilda	 tolerance 1e-08

Reading field p

Reading field U

Reading/calculating face flux field phi

Selecting incompressible transport model Newtonian
Selecting turbulence model type RAS
Selecting RAS turbulence model SpalartAllmaras
Selecting patchDistMethod meshWave
RAS
{
    RASModel        SpalartAllmaras;
    turbulence      on;
    printCoeffs     on;
    sigmaNut        0.6666666666666666;
    kappa           0.41;
    Cb1             0.1355;
    Cb2             0.622;
    Cw2             0.3;
    Cw3             2;
    Cv1             7.1;
    Cs              0.3;
}

No MRF models present

Creating finite volume options from "system/fvOptions"

Selecting finite volume options type velocityDampingConstraint
    Source: velocityDamping
    - selecting all cells
    - selected 6307136 cell(s) with volume 27.82583051608782

Starting time loop

--> FOAM Warning : 
    From bool Foam::functionObjectList::read()
    in file db/functionObjects/functionObjectList/functionObjectList.C at line 1013
    Reading "/home/greole/data/code/exasim_project/micro_benchmarks/WindsorBody/workspace/d551cb40b6675886050a40e015b59ab8/case/system/controlDict" at line 2 to 41
    Entry lref is not a dictionary
--> FOAM Warning : 
    From bool Foam::functionObjectList::read()
    in file db/functionObjects/functionObjectList/functionObjectList.C at line 1013
    Reading "/home/greole/data/code/exasim_project/micro_benchmarks/WindsorBody/workspace/d551cb40b6675886050a40e015b59ab8/case/system/controlDict" at line 2 to 41
    Entry Aref is not a dictionary
--> FOAM Warning : 
    From bool Foam::functionObjectList::read()
    in file db/functionObjects/functionObjectList/functionObjectList.C at line 1013
    Reading "/home/greole/data/code/exasim_project/micro_benchmarks/WindsorBody/workspace/d551cb40b6675886050a40e015b59ab8/case/system/controlDict" at line 2 to 41
    Entry yawAngle is not a dictionary
--> FOAM Warning : 
    From bool Foam::functionObjectList::read()
    in file db/functionObjects/functionObjectList/functionObjectList.C at line 1013
    Reading "/home/greole/data/code/exasim_project/micro_benchmarks/WindsorBody/workspace/d551cb40b6675886050a40e015b59ab8/case/system/controlDict" at line 2 to 41
    Entry lDomain is not a dictionary
--> FOAM Warning : 
    From bool Foam::functionObjectList::read()
    in file db/functionObjects/functionObjectList/functionObjectList.C at line 1013
    Reading "/home/greole/data/code/exasim_project/micro_benchmarks/WindsorBody/workspace/d551cb40b6675886050a40e015b59ab8/case/system/controlDict" at line 2 to 41
    Entry bDomain is not a dictionary
--> FOAM Warning : 
    From bool Foam::functionObjectList::read()
    in file db/functionObjects/functionObjectList/functionObjectList.C at line 1013
    Reading "/home/greole/data/code/exasim_project/micro_benchmarks/WindsorBody/workspace/d551cb40b6675886050a40e015b59ab8/case/system/controlDict" at line 2 to 41
    Entry hDomain is not a dictionary
--> FOAM Warning : 
    From bool Foam::functionObjectList::read()
    in file db/functionObjects/functionObjectList/functionObjectList.C at line 1013
    Reading "/home/greole/data/code/exasim_project/micro_benchmarks/WindsorBody/workspace/d551cb40b6675886050a40e015b59ab8/case/system/controlDict" at line 2 to 41
    Entry xCenter is not a dictionary
--> FOAM Warning : 
    From bool Foam::functionObjectList::read()
    in file db/functionObjects/functionObjectList/functionObjectList.C at line 1013
    Reading "/home/greole/data/code/exasim_project/micro_benchmarks/WindsorBody/workspace/d551cb40b6675886050a40e015b59ab8/case/system/controlDict" at line 2 to 41
    Entry yCenter is not a dictionary
--> FOAM Warning : 
    From bool Foam::functionObjectList::read()
    in file db/functionObjects/functionObjectList/functionObjectList.C at line 1013
    Reading "/home/greole/data/code/exasim_project/micro_benchmarks/WindsorBody/workspace/d551cb40b6675886050a40e015b59ab8/case/system/controlDict" at line 2 to 41
    Entry zCenter is not a dictionary
--> FOAM Warning : 
    From bool Foam::functionObjectList::read()
    in file db/functionObjects/functionObjectList/functionObjectList.C at line 1013
    Reading "/home/greole/data/code/exasim_project/micro_benchmarks/WindsorBody/workspace/d551cb40b6675886050a40e015b59ab8/case/system/controlDict" at line 2 to 41
    Entry inletPatch is not a dictionary
--> FOAM Warning : 
    From bool Foam::functionObjectList::read()
    in file db/functionObjects/functionObjectList/functionObjectList.C at line 1013
    Reading "/home/greole/data/code/exasim_project/micro_benchmarks/WindsorBody/workspace/d551cb40b6675886050a40e015b59ab8/case/system/controlDict" at line 2 to 41
    Entry outletPatch is not a dictionary
--> FOAM Warning : 
    From bool Foam::functionObjectList::read()
    in file db/functionObjects/functionObjectList/functionObjectList.C at line 1013
    Reading "/home/greole/data/code/exasim_project/micro_benchmarks/WindsorBody/workspace/d551cb40b6675886050a40e015b59ab8/case/system/controlDict" at line 2 to 41
    Entry wallPatches is not a dictionary
--> FOAM Warning : 
    From bool Foam::functionObjectList::read()
    in file db/functionObjects/functionObjectList/functionObjectList.C at line 1013
    Reading "/home/greole/data/code/exasim_project/micro_benchmarks/WindsorBody/workspace/d551cb40b6675886050a40e015b59ab8/case/system/controlDict" at line 2 to 41
    Entry forcesWallPatches is not a dictionary
--> FOAM Warning : 
    From bool Foam::functionObjectList::read()
    in file db/functionObjects/functionObjectList/functionObjectList.C at line 1013
    Reading "/home/greole/data/code/exasim_project/micro_benchmarks/WindsorBody/workspace/d551cb40b6675886050a40e015b59ab8/case/system/controlDict" at line 2 to 41
    Entry symmPatches is not a dictionary
--> FOAM Warning : 
    From bool Foam::functionObjectList::read()
    in file db/functionObjects/functionObjectList/functionObjectList.C at line 1013
    Reading "/home/greole/data/code/exasim_project/micro_benchmarks/WindsorBody/workspace/d551cb40b6675886050a40e015b59ab8/case/system/controlDict" at line 2 to 41
    Entry Uinf is not a dictionary
--> FOAM Warning : 
    From bool Foam::functionObjectList::read()
    in file db/functionObjects/functionObjectList/functionObjectList.C at line 1013
    Reading "/home/greole/data/code/exasim_project/micro_benchmarks/WindsorBody/workspace/d551cb40b6675886050a40e015b59ab8/case/system/controlDict" at line 2 to 41
    Entry UinfMag is not a dictionary
--> FOAM Warning : 
    From bool Foam::functionObjectList::read()
    in file db/functionObjects/functionObjectList/functionObjectList.C at line 1013
    Reading "/home/greole/data/code/exasim_project/micro_benchmarks/WindsorBody/workspace/d551cb40b6675886050a40e015b59ab8/case/system/controlDict" at line 2 to 41
    Entry nu is not a dictionary
--> FOAM Warning : 
    From bool Foam::functionObjectList::read()
    in file db/functionObjects/functionObjectList/functionObjectList.C at line 1013
    Reading "/home/greole/data/code/exasim_project/micro_benchmarks/WindsorBody/workspace/d551cb40b6675886050a40e015b59ab8/case/system/controlDict" at line 2 to 41
    Entry pref is not a dictionary
--> FOAM Warning : 
    From bool Foam::functionObjectList::read()
    in file db/functionObjects/functionObjectList/functionObjectList.C at line 1013
    Reading "/home/greole/data/code/exasim_project/micro_benchmarks/WindsorBody/workspace/d551cb40b6675886050a40e015b59ab8/case/system/controlDict" at line 2 to 41
    Entry viscRatio is not a dictionary
--> FOAM Warning : 
    From bool Foam::functionObjectList::read()
    in file db/functionObjects/functionObjectList/functionObjectList.C at line 1013
    Reading "/home/greole/data/code/exasim_project/micro_benchmarks/WindsorBody/workspace/d551cb40b6675886050a40e015b59ab8/case/system/controlDict" at line 2 to 41
    Entry Tu is not a dictionary
--> FOAM Warning : 
    From bool Foam::functionObjectList::read()
    in file db/functionObjects/functionObjectList/functionObjectList.C at line 1013
    Reading "/home/greole/data/code/exasim_project/micro_benchmarks/WindsorBody/workspace/d551cb40b6675886050a40e015b59ab8/case/system/controlDict" at line 2 to 41
    Entry LESturbModel is not a dictionary
--> FOAM Warning : 
    From bool Foam::functionObjectList::read()
    in file db/functionObjects/functionObjectList/functionObjectList.C at line 1013
    Reading "/home/greole/data/code/exasim_project/micro_benchmarks/WindsorBody/workspace/d551cb40b6675886050a40e015b59ab8/case/system/controlDict" at line 2 to 41
    Entry RASturbModel is not a dictionary
--> FOAM Warning : 
    From bool Foam::functionObjectList::read()
    in file db/functionObjects/functionObjectList/functionObjectList.C at line 1013
    Reading "/home/greole/data/code/exasim_project/micro_benchmarks/WindsorBody/workspace/d551cb40b6675886050a40e015b59ab8/case/system/controlDict" at line 2 to 41
    Entry deltaTurb is not a dictionary
--> FOAM Warning : 
    From bool Foam::functionObjectList::read()
    in file db/functionObjects/functionObjectList/functionObjectList.C at line 1013
    Reading "/home/greole/data/code/exasim_project/micro_benchmarks/WindsorBody/workspace/d551cb40b6675886050a40e015b59ab8/case/system/controlDict" at line 2 to 41
    Entry dt is not a dictionary
--> FOAM Warning : 
    From bool Foam::functionObjectList::read()
    in file db/functionObjects/functionObjectList/functionObjectList.C at line 1013
    Reading "/home/greole/data/code/exasim_project/micro_benchmarks/WindsorBody/workspace/d551cb40b6675886050a40e015b59ab8/case/system/controlDict" at line 2 to 41
    Entry tAvg is not a dictionary
--> FOAM Warning : 
    From bool Foam::functionObjectList::read()
    in file db/functionObjects/functionObjectList/functionObjectList.C at line 1013
    Reading "/home/greole/data/code/exasim_project/micro_benchmarks/WindsorBody/workspace/d551cb40b6675886050a40e015b59ab8/case/system/controlDict" at line 2 to 41
    Entry tEnd is not a dictionary
--> FOAM Warning : 
    From bool Foam::functionObjectList::read()
    in file db/functionObjects/functionObjectList/functionObjectList.C at line 1013
    Reading "/home/greole/data/code/exasim_project/micro_benchmarks/WindsorBody/workspace/d551cb40b6675886050a40e015b59ab8/case/system/controlDict" at line 2 to 41
    Entry writeInterval_ is not a dictionary
--> FOAM Warning : 
    From bool Foam::functionObjectList::read()
    in file db/functionObjects/functionObjectList/functionObjectList.C at line 1013
    Reading "/home/greole/data/code/exasim_project/micro_benchmarks/WindsorBody/workspace/d551cb40b6675886050a40e015b59ab8/case/system/controlDict" at line 2 to 41
    Entry nCores is not a dictionary
--> FOAM Warning : 
    From bool Foam::functionObjectList::read()
    in file db/functionObjects/functionObjectList/functionObjectList.C at line 1013
    Reading "/home/greole/data/code/exasim_project/micro_benchmarks/WindsorBody/workspace/d551cb40b6675886050a40e015b59ab8/case/system/controlDict" at line 2 to 41
    Entry interpScheme is not a dictionary
--> FOAM Warning : 
    From bool Foam::functionObjectList::read()
    in file db/functionObjects/functionObjectList/functionObjectList.C at line 1013
    Reading "/home/greole/data/code/exasim_project/micro_benchmarks/WindsorBody/workspace/d551cb40b6675886050a40e015b59ab8/case/system/controlDict" at line 2 to 41
    Entry probeField is not a dictionary
wallShearStress wallShearStress:
    processing wall patches: 
        Windsor_Body
        CFDWT_Floor
        Windsor_Pins
        Windsor_Base

pressure calc_cp:
    Operating mode: staticCoeff
    Not including hydrostatic effects

forceCoeffs forceCoeffsAll:
    rho: rhoInf
    Freestream density (rhoInf) set to 1
    Not including porosity effects

forceCoeffs dragCoeffBase:
    rho: rhoInf
    Freestream density (rhoInf) set to 1
    Not including porosity effects

Time = 1

velocityDampingConstraint velocityDamping damped 0 (0%) of cells
[INFO] MatrixAssemblyU: 859.602 [ms]
smoothSolver:  Solving for Ux, Initial residual = 0.9999999999990328, Final residual = 0.08731259393246379, No Iterations 15
smoothSolver:  Solving for Uy, Initial residual = 1, Final residual = 0.08968465882410541, No Iterations 31
smoothSolver:  Solving for Uz, Initial residual = 1, Final residual = 0.03285879368159803, No Iterations 2
[INFO] MomentumPredictor: 888.72 [ms]
[INFO] MatrixAssemblyPI: 186.451 [ms]
[INFO] MatrixAssemblyPII: 74.94199999999999 [ms]
DICPCG:  Solving for p, Initial residual = 1, Final residual = 0.00971108031060695, No Iterations 421
[INFO] SolveP: 7392.467 [ms]
time step continuity errors : sum local = 0.00356304476935885, global = 7.33768358455714e-05, cumulative = 7.33768358455714e-05
[INFO] postSolveP: 53.588 [ms]
smoothSolver:  Solving for nuTilda, Initial residual = 0.9999999997133072, Final residual = 0.06428486214479051, No Iterations 3
[INFO] TimeStep: 9975.437 [ms]
ExecutionTime = 17.85 s  ClockTime = 18 s

--> FOAM Warning : 
    From virtual bool Foam::functionObjects::fieldSelection::checkSelection()
    in file functionObjects/fieldSelections/fieldSelection/fieldSelection.C at line 166
    Field k not found
--> FOAM Warning : 
    From virtual bool Foam::functionObjects::fieldSelection::checkSelection()
    in file functionObjects/fieldSelections/fieldSelection/fieldSelection.C at line 166
    Field gammaInt not found
--> FOAM Warning : 
    From virtual bool Foam::functionObjects::fieldSelection::checkSelection()
    in file functionObjects/fieldSelections/fieldSelection/fieldSelection.C at line 166
    Field omega not found
--> FOAM Warning : 
    From virtual bool Foam::functionObjects::fieldSelection::checkSelection()
    in file functionObjects/fieldSelections/fieldSelection/fieldSelection.C at line 166
    Field ReThetat not found
--> FOAM Warning : 
    From virtual bool Foam::functionObjects::fieldSelection::checkSelection()
    in file functionObjects/fieldSelections/fieldSelection/fieldSelection.C at line 166
    Field epsilon not found
--> FOAM Warning : 
    From virtual bool Foam::functionObjects::solverFieldSelection::updateSelection()
    in file functionObjects/fieldSelections/solverFieldSelection/solverFieldSelection.C at line 85
    Valid solver fields are: 3(U nuTilda p)Time = 2

velocityDampingConstraint velocityDamping damped 0 (0%) of cells
[INFO] MatrixAssemblyU: 802.016 [ms]
smoothSolver:  Solving for Ux, Initial residual = 0.213086235404537, Final residual = 0.01842998434385293, No Iterations 13
smoothSolver:  Solving for Uy, Initial residual = 0.3553549112662953, Final residual = 0.03324061627786226, No Iterations 13
smoothSolver:  Solving for Uz, Initial residual = 0.328792140053535, Final residual = 0.02812502340372291, No Iterations 13
[INFO] MomentumPredictor: 727.227 [ms]
[INFO] MatrixAssemblyPI: 168.532 [ms]
[INFO] MatrixAssemblyPII: 82.83799999999999 [ms]
DICPCG:  Solving for p, Initial residual = 0.2096529006769138, Final residual = 0.002077419633227493, No Iterations 340
[INFO] SolveP: 5985.369 [ms]
time step continuity errors : sum local = 0.04257196297380154, global = 0.001752212028458507, cumulative = 0.001825588864304078
[INFO] postSolveP: 40.104 [ms]
smoothSolver:  Solving for nuTilda, Initial residual = 0.4059899488811318, Final residual = 0.02532813961797328, No Iterations 1
[INFO] TimeStep: 8292.023999999999 [ms]
ExecutionTime = 26.65 s  ClockTime = 27 s

Time = 3

velocityDampingConstraint velocityDamping damped 830 (0.01315969720646582%) of cells
[INFO] MatrixAssemblyU: 793.5650000000001 [ms]
smoothSolver:  Solving for Ux, Initial residual = 0.1244820319676741, Final residual = 0.01181662017799726, No Iterations 9
smoothSolver:  Solving for Uy, Initial residual = 0.2059371597140616, Final residual = 0.0198103245317162, No Iterations 10
smoothSolver:  Solving for Uz, Initial residual = 0.2186773056818693, Final residual = 0.02143710366849252, No Iterations 9
[INFO] MomentumPredictor: 560.913 [ms]
[INFO] MatrixAssemblyPI: 169.399 [ms]
[INFO] MatrixAssemblyPII: 78.792 [ms]
DICPCG:  Solving for p, Initial residual = 0.1187650296985498, Final residual = 0.001172219951474395, No Iterations 189
[INFO] SolveP: 3314.836 [ms]
time step continuity errors : sum local = 0.01308755404231946, global = -0.0009274626283755019, cumulative = 0.0008981262359285764
[INFO] postSolveP: 42.596 [ms]
smoothSolver:  Solving for nuTilda, Initial residual = 0.2091478763897275, Final residual = 0.01313328578467367, No Iterations 2
[INFO] TimeStep: 5453.274 [ms]
ExecutionTime = 32.67 s  ClockTime = 33 s

Time = 4

velocityDampingConstraint velocityDamping damped 0 (0%) of cells
[INFO] MatrixAssemblyU: 791.681 [ms]
smoothSolver:  Solving for Ux, Initial residual = 0.05387225240942269, Final residual = 0.004972293693284877, No Iterations 11
smoothSolver:  Solving for Uy, Initial residual = 0.1232577966552345, Final residual = 0.01111192192953608, No Iterations 11
smoothSolver:  Solving for Uz, Initial residual = 0.1337555140977127, Final residual = 0.01310695475837073, No Iterations 10
[INFO] MomentumPredictor: 621.218 [ms]
[INFO] MatrixAssemblyPI: 161.142 [ms]
[INFO] MatrixAssemblyPII: 80.146 [ms]
DICPCG:  Solving for p, Initial residual = 0.1356678642000728, Final residual = 0.001302214584118455, No Iterations 112
[INFO] SolveP: 1985.497 [ms]
time step continuity errors : sum local = 0.01295140016205911, global = -0.001999962991894978, cumulative = -0.001101836755966402
[INFO] postSolveP: 38.137 [ms]
smoothSolver:  Solving for nuTilda, Initial residual = 0.1248471536801581, Final residual = 0.01050363405916714, No Iterations 2
[INFO] TimeStep: 4161.442 [ms]
ExecutionTime = 37.44 s  ClockTime = 38 s

Time = 5

velocityDampingConstraint velocityDamping damped 115 (0.001823331540654903%) of cells
[INFO] MatrixAssemblyU: 796.842 [ms]
smoothSolver:  Solving for Ux, Initial residual = 0.04380236016505279, Final residual = 0.004198810527549013, No Iterations 10
smoothSolver:  Solving for Uy, Initial residual = 0.09822749651766147, Final residual = 0.009373234614872042, No Iterations 11
smoothSolver:  Solving for Uz, Initial residual = 0.11400028455751, Final residual = 0.01138395470804705, No Iterations 10
[INFO] MomentumPredictor: 604.95 [ms]
[INFO] MatrixAssemblyPI: 158.596 [ms]
[INFO] MatrixAssemblyPII: 77.99299999999999 [ms]
DICPCG:  Solving for p, Initial residual = 0.09766224641232377, Final residual = 0.000945679949288105, No Iterations 230
[INFO] SolveP: 4033.406 [ms]
time step continuity errors : sum local = 0.007452882318831971, global = -0.000275731172170142, cumulative = -0.001377567928136544
[INFO] postSolveP: 39.375 [ms]
smoothSolver:  Solving for nuTilda, Initial residual = 0.07089079274908641, Final residual = 0.004308166897054965, No Iterations 3
[INFO] TimeStep: 6205.414 [ms]
ExecutionTime = 44.22 s  ClockTime = 45 s

Time = 6

velocityDampingConstraint velocityDamping damped 0 (0%) of cells
[INFO] MatrixAssemblyU: 795.376 [ms]
smoothSolver:  Solving for Ux, Initial residual = 0.02994851765532466, Final residual = 0.002656085878900039, No Iterations 12
smoothSolver:  Solving for Uy, Initial residual = 0.07489772616112704, Final residual = 0.006908288018328796, No Iterations 12
smoothSolver:  Solving for Uz, Initial residual = 0.08116139612552778, Final residual = 0.006929297794512629, No Iterations 12
[INFO] MomentumPredictor: 684.725 [ms]
[INFO] MatrixAssemblyPI: 159.543 [ms]
[INFO] MatrixAssemblyPII: 69.402 [ms]
DICPCG:  Solving for p, Initial residual = 0.09716094691872006, Final residual = 0.0009605474605401984, No Iterations 135
[INFO] SolveP: 2386.14 [ms]
time step continuity errors : sum local = 0.007007547121307624, global = 0.000651900782826437, cumulative = -0.0007256671453101067
[INFO] postSolveP: 37.745 [ms]
smoothSolver:  Solving for nuTilda, Initial residual = 0.06435755360878882, Final residual = 0.006428705854141177, No Iterations 2
[INFO] TimeStep: 4628.462 [ms]
ExecutionTime = 49.44 s  ClockTime = 50 s

Time = 7

velocityDampingConstraint velocityDamping damped 15 (0.0002378258531289003%) of cells
[INFO] MatrixAssemblyU: 792.245 [ms]
smoothSolver:  Solving for Ux, Initial residual = 0.02714465515507138, Final residual = 0.002429215962865853, No Iterations 12
smoothSolver:  Solving for Uy, Initial residual = 0.06785872212741954, Final residual = 0.006415749171323023, No Iterations 12
smoothSolver:  Solving for Uz, Initial residual = 0.07114122909705825, Final residual = 0.00620828615665964, No Iterations 12
[INFO] MomentumPredictor: 682.874 [ms]
[INFO] MatrixAssemblyPI: 155.618 [ms]
[INFO] MatrixAssemblyPII: 75.06699999999999 [ms]
DICPCG:  Solving for p, Initial residual = 0.08336074598643115, Final residual = 0.0008319731280152972, No Iterations 126
[INFO] SolveP: 2220.675 [ms]
time step continuity errors : sum local = 0.006060334177985393, global = 0.0008904316111535246, cumulative = 0.000164764465843418
[INFO] postSolveP: 38.772 [ms]
smoothSolver:  Solving for nuTilda, Initial residual = 0.04946680798315731, Final residual = 0.003234946711784342, No Iterations 3
[INFO] TimeStep: 4461.396 [ms]
ExecutionTime = 54.48 s  ClockTime = 55 s

Time = 8

velocityDampingConstraint velocityDamping damped 0 (0%) of cells
[INFO] MatrixAssemblyU: 779.1799999999999 [ms]
smoothSolver:  Solving for Ux, Initial residual = 0.02310920493974014, Final residual = 0.002139635277458419, No Iterations 12
smoothSolver:  Solving for Uy, Initial residual = 0.06021467442985744, Final residual = 0.005911804853281928, No Iterations 12
smoothSolver:  Solving for Uz, Initial residual = 0.06186617725512044, Final residual = 0.005593491181517229, No Iterations 12
[INFO] MomentumPredictor: 689.02 [ms]
[INFO] MatrixAssemblyPI: 160.403 [ms]
[INFO] MatrixAssemblyPII: 73.848 [ms]
DICPCG:  Solving for p, Initial residual = 0.07505324177391827, Final residual = 0.0007487003005675823, No Iterations 119
[INFO] SolveP: 2095.401 [ms]
time step continuity errors : sum local = 0.005575463688507322, global = 0.001002699350278324, cumulative = 0.001167463816121742
[INFO] postSolveP: 38.61 [ms]
smoothSolver:  Solving for nuTilda, Initial residual = 0.06589588310896052, Final residual = 0.005891965369931971, No Iterations 2
[INFO] TimeStep: 4312.747 [ms]
ExecutionTime = 59.39 s  ClockTime = 60 s

Time = 9

velocityDampingConstraint velocityDamping damped 0 (0%) of cells
[INFO] MatrixAssemblyU: 797.057 [ms]
smoothSolver:  Solving for Ux, Initial residual = 0.02035133168992626, Final residual = 0.001900331405241403, No Iterations 12
smoothSolver:  Solving for Uy, Initial residual = 0.05444495939380344, Final residual = 0.005423669398496788, No Iterations 12
smoothSolver:  Solving for Uz, Initial residual = 0.05506428735360096, Final residual = 0.005115038658532433, No Iterations 12
[INFO] MomentumPredictor: 678.643 [ms]
[INFO] MatrixAssemblyPI: 154.48 [ms]
[INFO] MatrixAssemblyPII: 82.691 [ms]
DICPCG:  Solving for p, Initial residual = 0.06849106227242308, Final residual = 0.0006786501539674636, No Iterations 120
[INFO] SolveP: 2098.067 [ms]
time step continuity errors : sum local = 0.005136310253255439, global = 0.001177156400742804, cumulative = 0.002344620216864546
[INFO] postSolveP: 36.988 [ms]
smoothSolver:  Solving for nuTilda, Initial residual = 0.0444551061555265, Final residual = 0.003227160012562183, No Iterations 3
[INFO] TimeStep: 4338.507 [ms]
ExecutionTime = 64.34 s  ClockTime = 65 s

Time = 10

velocityDampingConstraint velocityDamping damped 0 (0%) of cells
[INFO] MatrixAssemblyU: 790.965 [ms]
smoothSolver:  Solving for Ux, Initial residual = 0.01833296677242778, Final residual = 0.001726015799257157, No Iterations 12
smoothSolver:  Solving for Uy, Initial residual = 0.05024869024721558, Final residual = 0.00500117227607256, No Iterations 12
smoothSolver:  Solving for Uz, Initial residual = 0.05042850414527658, Final residual = 0.004753590405735658, No Iterations 12
[INFO] MomentumPredictor: 681.364 [ms]
[INFO] MatrixAssemblyPI: 157.15 [ms]
[INFO] MatrixAssemblyPII: 75.425 [ms]
DICPCG:  Solving for p, Initial residual = 0.06210327707085795, Final residual = 0.0006019823283452926, No Iterations 232
[INFO] SolveP: 4049.193 [ms]
time step continuity errors : sum local = 0.004551548961187903, global = 7.877077175236084e-05, cumulative = 0.002423390988616907
[INFO] postSolveP: 36.672 [ms]
smoothSolver:  Solving for nuTilda, Initial residual = 0.06997849427328161, Final residual = 0.005533903733271278, No Iterations 2
[INFO] TimeStep: 6260.262 [ms]
ExecutionTime = 71.17 s  ClockTime = 72 s

Time = 11

velocityDampingConstraint velocityDamping damped 0 (0%) of cells
[INFO] MatrixAssemblyU: 775.351 [ms]
smoothSolver:  Solving for Ux, Initial residual = 0.01672915338467537, Final residual = 0.001599988013858919, No Iterations 12
smoothSolver:  Solving for Uy, Initial residual = 0.04775606757601789, Final residual = 0.004722950724535723, No Iterations 12
smoothSolver:  Solving for Uz, Initial residual = 0.04757235976264426, Final residual = 0.004517085380450158, No Iterations 12
[INFO] MomentumPredictor: 679.74 [ms]
[INFO] MatrixAssemblyPI: 155.326 [ms]
[INFO] MatrixAssemblyPII: 78.10299999999999 [ms]
DICPCG:  Solving for p, Initial residual = 0.05446205037597731, Final residual = 0.0005319439883248197, No Iterations 109
[INFO] SolveP: 1913.094 [ms]
time step continuity errors : sum local = 0.004266837406932946, global = -0.0005677511710703448, cumulative = 0.001855639817546562
[INFO] postSolveP: 37.63 [ms]
smoothSolver:  Solving for nuTilda, Initial residual = 0.0393365970983012, Final residual = 0.003053306760730274, No Iterations 3
[INFO] TimeStep: 4132.245 [ms]
ExecutionTime = 75.90000000000001 s  ClockTime = 77 s

Time = 12

velocityDampingConstraint velocityDamping damped 0 (0%) of cells
[INFO] MatrixAssemblyU: 767.247 [ms]
smoothSolver:  Solving for Ux, Initial residual = 0.01550938502316418, Final residual = 0.001512531451381536, No Iterations 12
smoothSolver:  Solving for Uy, Initial residual = 0.0454605207903056, Final residual = 0.00445879349385681, No Iterations 12
smoothSolver:  Solving for Uz, Initial residual = 0.04476160979661202, Final residual = 0.004270234002878167, No Iterations 12
[INFO] MomentumPredictor: 686.785 [ms]
[INFO] MatrixAssemblyPI: 156.393 [ms]
[INFO] MatrixAssemblyPII: 83.62 [ms]
DICPCG:  Solving for p, Initial residual = 0.05162288179010475, Final residual = 0.0005051913488711073, No Iterations 117
[INFO] SolveP: 2074.72 [ms]
time step continuity errors : sum local = 0.004002808699245099, global = -0.0007613839986987146, cumulative = 0.001094255818847848
[INFO] postSolveP: 37.591 [ms]
smoothSolver:  Solving for nuTilda, Initial residual = 0.06581844181034428, Final residual = 0.005137100572586037, No Iterations 2
[INFO] TimeStep: 4280.675 [ms]
ExecutionTime = 80.78 s  ClockTime = 82 s

Time = 13

velocityDampingConstraint velocityDamping damped 0 (0%) of cells
[INFO] MatrixAssemblyU: 765.461 [ms]
smoothSolver:  Solving for Ux, Initial residual = 0.01449650235803798, Final residual = 0.00144053051425902, No Iterations 12
smoothSolver:  Solving for Uy, Initial residual = 0.0435392926205345, Final residual = 0.004258092320592996, No Iterations 12
smoothSolver:  Solving for Uz, Initial residual = 0.04294504401540285, Final residual = 0.004120476356141395, No Iterations 12
[INFO] MomentumPredictor: 678.513 [ms]
[INFO] MatrixAssemblyPI: 155.201 [ms]
[INFO] MatrixAssemblyPII: 73.661 [ms]
DICPCG:  Solving for p, Initial residual = 0.04901278710444266, Final residual = 0.0004844394976943212, No Iterations 126
[INFO] SolveP: 2221.059 [ms]
time step continuity errors : sum local = 0.003809940216947945, global = -0.0008145885109704173, cumulative = 0.0002796673078774304
[INFO] postSolveP: 40.57 [ms]
smoothSolver:  Solving for nuTilda, Initial residual = 0.03475649788646288, Final residual = 0.00285195501508986, No Iterations 3
[INFO] TimeStep: 4443.816 [ms]
ExecutionTime = 85.81999999999999 s  ClockTime = 87 s

Time = 14

velocityDampingConstraint velocityDamping damped 0 (0%) of cells
[INFO] MatrixAssemblyU: 779.5069999999999 [ms]
smoothSolver:  Solving for Ux, Initial residual = 0.01368638935739353, Final residual = 0.001171624199410564, No Iterations 13
smoothSolver:  Solving for Uy, Initial residual = 0.04171191611954975, Final residual = 0.004094755190093564, No Iterations 12
smoothSolver:  Solving for Uz, Initial residual = 0.04194709793718224, Final residual = 0.00404545254921554, No Iterations 12
[INFO] MomentumPredictor: 694.582 [ms]
[INFO] MatrixAssemblyPI: 156.41 [ms]
[INFO] MatrixAssemblyPII: 77.529 [ms]
DICPCG:  Solving for p, Initial residual = 0.04696413384757267, Final residual = 0.0004645244699174, No Iterations 100
[INFO] SolveP: 1761.899 [ms]
time step continuity errors : sum local = 0.003641421111657401, global = -0.0008050377799461209, cumulative = -0.0005253704720686905
[INFO] postSolveP: 37.204 [ms]
smoothSolver:  Solving for nuTilda, Initial residual = 0.05850738785908258, Final residual = 0.004825217879578064, No Iterations 2
[INFO] TimeStep: 3977.087 [ms]
ExecutionTime = 90.39 s  ClockTime = 91 s

Time = 15

velocityDampingConstraint velocityDamping damped 0 (0%) of cells
[INFO] MatrixAssemblyU: 776.0359999999999 [ms]
smoothSolver:  Solving for Ux, Initial residual = 0.01282485952578003, Final residual = 0.001108843614315947, No Iterations 13
smoothSolver:  Solving for Uy, Initial residual = 0.04030459361593931, Final residual = 0.003987138118752689, No Iterations 12
smoothSolver:  Solving for Uz, Initial residual = 0.04166721301035696, Final residual = 0.004049927320673096, No Iterations 12
[INFO] MomentumPredictor: 697.466 [ms]
[INFO] MatrixAssemblyPI: 155.126 [ms]
[INFO] MatrixAssemblyPII: 82.396 [ms]
DICPCG:  Solving for p, Initial residual = 0.04565936603568545, Final residual = 0.0004480811211756468, No Iterations 116
[INFO] SolveP: 2045.879 [ms]
time step continuity errors : sum local = 0.003507413261356402, global = -0.0006902576117186087, cumulative = -0.001215628083787299
[INFO] postSolveP: 49.818 [ms]
smoothSolver:  Solving for nuTilda, Initial residual = 0.03117480744244293, Final residual = 0.00268084604748515, No Iterations 3
[INFO] TimeStep: 4295.64 [ms]
ExecutionTime = 95.27 s  ClockTime = 96 s

Time = 16

velocityDampingConstraint velocityDamping damped 0 (0%) of cells
[INFO] MatrixAssemblyU: 766.9160000000001 [ms]
smoothSolver:  Solving for Ux, Initial residual = 0.01220647593275126, Final residual = 0.001055162953719345, No Iterations 13
smoothSolver:  Solving for Uy, Initial residual = 0.03939954087139097, Final residual = 0.003915081989651198, No Iterations 12
smoothSolver:  Solving for Uz, Initial residual = 0.0415436590435086, Final residual = 0.00404344778375013, No Iterations 12
[INFO] MomentumPredictor: 691.866 [ms]
[INFO] MatrixAssemblyPI: 155.978 [ms]
[INFO] MatrixAssemblyPII: 78.06100000000001 [ms]
DICPCG:  Solving for p, Initial residual = 0.04453795470999926, Final residual = 0.0004414055938530637, No Iterations 95
[INFO] SolveP: 1680.899 [ms]
time step continuity errors : sum local = 0.00345332720318588, global = -0.0004950178562176503, cumulative = -0.00171064594000495
[INFO] postSolveP: 36.715 [ms]
smoothSolver:  Solving for nuTilda, Initial residual = 0.05193085017204345, Final residual = 0.004570545684612438, No Iterations 2
[INFO] TimeStep: 3877.454 [ms]
ExecutionTime = 99.75 s  ClockTime = 101 s

Time = 17

velocityDampingConstraint velocityDamping damped 0 (0%) of cells
[INFO] MatrixAssemblyU: 752.037 [ms]
smoothSolver:  Solving for Ux, Initial residual = 0.01159086168717465, Final residual = 0.001007334712753118, No Iterations 13
smoothSolver:  Solving for Uy, Initial residual = 0.0388851355654461, Final residual = 0.003308984642787555, No Iterations 13
smoothSolver:  Solving for Uz, Initial residual = 0.0415647349819703, Final residual = 0.004060568377399272, No Iterations 12
[INFO] MomentumPredictor: 709.1849999999999 [ms]
[INFO] MatrixAssemblyPI: 154.872 [ms]
[INFO] MatrixAssemblyPII: 75.005 [ms]
DICPCG:  Solving for p, Initial residual = 0.04422147427517305, Final residual = 0.0004376002705490364, No Iterations 105
[INFO] SolveP: 1855.297 [ms]
time step continuity errors : sum local = 0.003431737220850577, global = -0.0002525011164557355, cumulative = -0.001963147056460685
[INFO] postSolveP: 42.352 [ms]
smoothSolver:  Solving for nuTilda, Initial residual = 0.02854995013559632, Final residual = 0.002529404445794477, No Iterations 3
[INFO] TimeStep: 4084.756 [ms]
ExecutionTime = 104.42 s  ClockTime = 106 s

Time = 18

velocityDampingConstraint velocityDamping damped 0 (0%) of cells
[INFO] MatrixAssemblyU: 769.914 [ms]
smoothSolver:  Solving for Ux, Initial residual = 0.01125914637301849, Final residual = 0.0009685255668327284, No Iterations 13
smoothSolver:  Solving for Uy, Initial residual = 0.0386295239318025, Final residual = 0.003296060582392213, No Iterations 13
smoothSolver:  Solving for Uz, Initial residual = 0.04178740472853681, Final residual = 0.004064534490263766, No Iterations 12
[INFO] MomentumPredictor: 709.978 [ms]
[INFO] MatrixAssemblyPI: 155.811 [ms]
[INFO] MatrixAssemblyPII: 80.623 [ms]
DICPCG:  Solving for p, Initial residual = 0.04416379970865777, Final residual = 0.0004322987038198976, No Iterations 106
[INFO] SolveP: 1870.785 [ms]
time step continuity errors : sum local = 0.003406517701264591, global = 3.702928609822115e-05, cumulative = -0.001926117770362464
[INFO] postSolveP: 36.177 [ms]
smoothSolver:  Solving for nuTilda, Initial residual = 0.04657467861151186, Final residual = 0.00431588056255077, No Iterations 2
[INFO] TimeStep: 4098.959 [ms]
ExecutionTime = 109.11 s  ClockTime = 110 s

Time = 19

velocityDampingConstraint velocityDamping damped 0 (0%) of cells
[INFO] MatrixAssemblyU: 762.809 [ms]
smoothSolver:  Solving for Ux, Initial residual = 0.01090611401367312, Final residual = 0.0009378937590686744, No Iterations 13
smoothSolver:  Solving for Uy, Initial residual = 0.03895953680484895, Final residual = 0.003325996464728975, No Iterations 13
smoothSolver:  Solving for Uz, Initial residual = 0.0425112092134469, Final residual = 0.004109034996409426, No Iterations 12
[INFO] MomentumPredictor: 707.1609999999999 [ms]
[INFO] MatrixAssemblyPI: 155.428 [ms]
[INFO] MatrixAssemblyPII: 79.28700000000001 [ms]
DICPCG:  Solving for p, Initial residual = 0.04440270287612016, Final residual = 0.0004358943258011928, No Iterations 116
[INFO] SolveP: 2043.789 [ms]
time step continuity errors : sum local = 0.003453849869959012, global = 0.0003310399523918555, cumulative = -0.001595077817970609
[INFO] postSolveP: 41.504 [ms]
smoothSolver:  Solving for nuTilda, Initial residual = 0.02656139339391021, Final residual = 0.002378025559646324, No Iterations 3
[INFO] TimeStep: 4276.891 [ms]
ExecutionTime = 113.97 s  ClockTime = 115 s

Time = 20

velocityDampingConstraint velocityDamping damped 0 (0%) of cells
[INFO] MatrixAssemblyU: 762.804 [ms]
smoothSolver:  Solving for Ux, Initial residual = 0.01073196850810209, Final residual = 0.0009182909414263358, No Iterations 13
smoothSolver:  Solving for Uy, Initial residual = 0.0393646800960113, Final residual = 0.003929009442329099, No Iterations 12
smoothSolver:  Solving for Uz, Initial residual = 0.04310019185516851, Final residual = 0.004138848754911687, No Iterations 12
[INFO] MomentumPredictor: 694.505 [ms]
[INFO] MatrixAssemblyPI: 155.981 [ms]
[INFO] MatrixAssemblyPII: 80.09399999999999 [ms]
DICPCG:  Solving for p, Initial residual = 0.04430360475794678, Final residual = 0.0004415834778101056, No Iterations 122
[INFO] SolveP: 2146.778 [ms]
time step continuity errors : sum local = 0.003536284678765389, global = 0.0005866085362997084, cumulative = -0.0010084692816709
[INFO] postSolveP: 36.83 [ms]
smoothSolver:  Solving for nuTilda, Initial residual = 0.04202325802873877, Final residual = 0.004059408427249896, No Iterations 2
[INFO] TimeStep: 4344.237 [ms]
ExecutionTime = 118.91 s  ClockTime = 120 s

Time = 21

velocityDampingConstraint velocityDamping damped 0 (0%) of cells
[INFO] MatrixAssemblyU: 765.6319999999999 [ms]
smoothSolver:  Solving for Ux, Initial residual = 0.01052494049025563, Final residual = 0.0009039348909688943, No Iterations 13
smoothSolver:  Solving for Uy, Initial residual = 0.0400201272162942, Final residual = 0.003978172204299159, No Iterations 12
smoothSolver:  Solving for Uz, Initial residual = 0.04342617971127004, Final residual = 0.004134970144756677, No Iterations 12
[INFO] MomentumPredictor: 692.345 [ms]
[INFO] MatrixAssemblyPI: 154.1 [ms]
[INFO] MatrixAssemblyPII: 75.28100000000001 [ms]
DICPCG:  Solving for p, Initial residual = 0.04428894934015699, Final residual = 0.0004422508273240364, No Iterations 134
[INFO] SolveP: 2360.567 [ms]
time step continuity errors : sum local = 0.003588903569016597, global = 0.0007754470651541296, cumulative = -0.0002330222165167707
[INFO] postSolveP: 43.669 [ms]
smoothSolver:  Solving for nuTilda, Initial residual = 0.02488156190256179, Final residual = 0.002230247667061834, No Iterations 3
[INFO] TimeStep: 4584.73 [ms]
ExecutionTime = 124.07 s  ClockTime = 125 s

Time = 22

velocityDampingConstraint velocityDamping damped 0 (0%) of cells
[INFO] MatrixAssemblyU: 759.884 [ms]
smoothSolver:  Solving for Ux, Initial residual = 0.01048564644666127, Final residual = 0.001047024174721065, No Iterations 12
smoothSolver:  Solving for Uy, Initial residual = 0.04065536835084425, Final residual = 0.004000792837122544, No Iterations 12
smoothSolver:  Solving for Uz, Initial residual = 0.04331690245344087, Final residual = 0.004093132231961532, No Iterations 12
[INFO] MomentumPredictor: 677.885 [ms]
[INFO] MatrixAssemblyPI: 155.096 [ms]
[INFO] MatrixAssemblyPII: 79.89100000000001 [ms]
DICPCG:  Solving for p, Initial residual = 0.04393062598498566, Final residual = 0.0004329999973536384, No Iterations 235
[INFO] SolveP: 4097.861 [ms]
time step continuity errors : sum local = 0.003570070477853478, global = 1.466090668443227e-05, cumulative = -0.0002183613098323384
[INFO] postSolveP: 36.827 [ms]
smoothSolver:  Solving for nuTilda, Initial residual = 0.03813089637076162, Final residual = 0.003811980853861661, No Iterations 2
[INFO] TimeStep: 6277.063 [ms]
ExecutionTime = 130.92 s  ClockTime = 132 s

Time = 23

velocityDampingConstraint velocityDamping damped 0 (0%) of cells
[INFO] MatrixAssemblyU: 756.896 [ms]
smoothSolver:  Solving for Ux, Initial residual = 0.01039038464567925, Final residual = 0.0010379052814623, No Iterations 12
smoothSolver:  Solving for Uy, Initial residual = 0.04144598880283384, Final residual = 0.004006810575167608, No Iterations 12
smoothSolver:  Solving for Uz, Initial residual = 0.04306593267426347, Final residual = 0.004014141085366488, No Iterations 12
[INFO] MomentumPredictor: 676.586 [ms]
[INFO] MatrixAssemblyPI: 153.785 [ms]
[INFO] MatrixAssemblyPII: 77.678 [ms]
DICPCG:  Solving for p, Initial residual = 0.04235755609828347, Final residual = 0.0004220047092668804, No Iterations 114
[INFO] SolveP: 2014.498 [ms]
time step continuity errors : sum local = 0.003646191348603304, global = -0.0001378568445902585, cumulative = -0.0003562181544225969
[INFO] postSolveP: 42.4 [ms]
smoothSolver:  Solving for nuTilda, Initial residual = 0.02315794373830756, Final residual = 0.002094342290392484, No Iterations 3
[INFO] TimeStep: 4207.507 [ms]
ExecutionTime = 135.72 s  ClockTime = 137 s

Time = 24

velocityDampingConstraint velocityDamping damped 0 (0%) of cells
[INFO] MatrixAssemblyU: 747.872 [ms]
smoothSolver:  Solving for Ux, Initial residual = 0.01038305110602039, Final residual = 0.001033576474000107, No Iterations 12
smoothSolver:  Solving for Uy, Initial residual = 0.04194403357578707, Final residual = 0.004038691196678658, No Iterations 12
smoothSolver:  Solving for Uz, Initial residual = 0.04245944755636059, Final residual = 0.003928857556877112, No Iterations 12
[INFO] MomentumPredictor: 676.289 [ms]
[INFO] MatrixAssemblyPI: 155.619 [ms]
[INFO] MatrixAssemblyPII: 76.071 [ms]
DICPCG:  Solving for p, Initial residual = 0.04249050182389881, Final residual = 0.000421935836415605, No Iterations 119
[INFO] SolveP: 2106.179 [ms]
time step continuity errors : sum local = 0.003654928222796974, global = -0.0001012631994175, cumulative = -0.000457481353840097
[INFO] postSolveP: 43.593 [ms]
smoothSolver:  Solving for nuTilda, Initial residual = 0.03484987165997751, Final residual = 0.001923488406375552, No Iterations 3
[INFO] TimeStep: 4292.067 [ms]
ExecutionTime = 140.6 s  ClockTime = 142 s

Time = 25

velocityDampingConstraint velocityDamping damped 0 (0%) of cells
[INFO] MatrixAssemblyU: 749.3579999999999 [ms]
smoothSolver:  Solving for Ux, Initial residual = 0.0103221496375735, Final residual = 0.0008840552262857977, No Iterations 13
smoothSolver:  Solving for Uy, Initial residual = 0.04275158754454877, Final residual = 0.00413197077072861, No Iterations 12
smoothSolver:  Solving for Uz, Initial residual = 0.04216621729469759, Final residual = 0.003894588275857851, No Iterations 12
[INFO] MomentumPredictor: 696.186 [ms]
[INFO] MatrixAssemblyPI: 155.608 [ms]
[INFO] MatrixAssemblyPII: 74.95399999999999 [ms]
DICPCG:  Solving for p, Initial residual = 0.04210866419366826, Final residual = 0.0004082731719876485, No Iterations 124
[INFO] SolveP: 2174.894 [ms]
time step continuity errors : sum local = 0.003574289901484174, global = -8.222242010825636e-05, cumulative = -0.0005397037739483533
[INFO] postSolveP: 43.322 [ms]
smoothSolver:  Solving for nuTilda, Initial residual = 0.02149278671689495, Final residual = 0.001974242867243804, No Iterations 3
[INFO] TimeStep: 4391.555 [ms]
ExecutionTime = 145.56 s  ClockTime = 147 s

Time = 26

velocityDampingConstraint velocityDamping damped 0 (0%) of cells
[INFO] MatrixAssemblyU: 760.798 [ms]
smoothSolver:  Solving for Ux, Initial residual = 0.01039605915123295, Final residual = 0.001036639491705509, No Iterations 12
smoothSolver:  Solving for Uy, Initial residual = 0.04372642175724053, Final residual = 0.004289305284579199, No Iterations 12
smoothSolver:  Solving for Uz, Initial residual = 0.0422106948854301, Final residual = 0.003939317844043235, No Iterations 12
[INFO] MomentumPredictor: 677.198 [ms]
[INFO] MatrixAssemblyPI: 155.756 [ms]
[INFO] MatrixAssemblyPII: 77.18899999999999 [ms]
DICPCG:  Solving for p, Initial residual = 0.04182479136149608, Final residual = 0.000415575238908336, No Iterations 114
[INFO] SolveP: 2011.072 [ms]
time step continuity errors : sum local = 0.003677651860800437, global = 2.167675758228905e-06, cumulative = -0.0005375360981901245
[INFO] postSolveP: 37.672 [ms]
smoothSolver:  Solving for nuTilda, Initial residual = 0.03186850190346529, Final residual = 0.001817246740345058, No Iterations 3
[INFO] TimeStep: 4204.547 [ms]
ExecutionTime = 150.36 s  ClockTime = 152 s

Time = 27

velocityDampingConstraint velocityDamping damped 0 (0%) of cells
[INFO] MatrixAssemblyU: 763.998 [ms]
smoothSolver:  Solving for Ux, Initial residual = 0.01040446833875908, Final residual = 0.00103819696579247, No Iterations 12
smoothSolver:  Solving for Uy, Initial residual = 0.04478039770005261, Final residual = 0.004457755292775461, No Iterations 12
smoothSolver:  Solving for Uz, Initial residual = 0.04251874060086282, Final residual = 0.00401749786554334, No Iterations 12
[INFO] MomentumPredictor: 678.375 [ms]
[INFO] MatrixAssemblyPI: 154.938 [ms]
[INFO] MatrixAssemblyPII: 80.986 [ms]
DICPCG:  Solving for p, Initial residual = 0.04223792584100326, Final residual = 0.0004220430529850398, No Iterations 117
[INFO] SolveP: 2054.634 [ms]
time step continuity errors : sum local = 0.003769093265309088, global = 0.0001792453087842387, cumulative = -0.0003582907894058858
[INFO] postSolveP: 42.424 [ms]
smoothSolver:  Solving for nuTilda, Initial residual = 0.01987620300828316, Final residual = 0.001848757142815839, No Iterations 3
[INFO] TimeStep: 4262.253 [ms]
ExecutionTime = 155.21 s  ClockTime = 157 s

Time = 28

velocityDampingConstraint velocityDamping damped 0 (0%) of cells
[INFO] MatrixAssemblyU: 760.391 [ms]
smoothSolver:  Solving for Ux, Initial residual = 0.0105516902202635, Final residual = 0.001041822699924483, No Iterations 12
smoothSolver:  Solving for Uy, Initial residual = 0.04615390523499671, Final residual = 0.003956594761457664, No Iterations 13
smoothSolver:  Solving for Uz, Initial residual = 0.04351370716813273, Final residual = 0.004129567886741404, No Iterations 12
[INFO] MomentumPredictor: 691.553 [ms]
[INFO] MatrixAssemblyPI: 155.506 [ms]
[INFO] MatrixAssemblyPII: 79.65600000000001 [ms]
DICPCG:  Solving for p, Initial residual = 0.04318615100272433, Final residual = 0.0004281781855779649, No Iterations 103
[INFO] SolveP: 1811.147 [ms]
time step continuity errors : sum local = 0.003870118186897924, global = 0.0003915620853641075, cumulative = 3.327129595822172e-05
[INFO] postSolveP: 36.828 [ms]
smoothSolver:  Solving for nuTilda, Initial residual = 0.02928920100794388, Final residual = 0.00171110898752646, No Iterations 3
[INFO] TimeStep: 4018.093 [ms]
ExecutionTime = 159.82 s  ClockTime = 161 s

Time = 29

velocityDampingConstraint velocityDamping damped 0 (0%) of cells
[INFO] MatrixAssemblyU: 759.689 [ms]
smoothSolver:  Solving for Ux, Initial residual = 0.01058645778612682, Final residual = 0.001042929356054168, No Iterations 12
smoothSolver:  Solving for Uy, Initial residual = 0.04770178865005481, Final residual = 0.004092807911269928, No Iterations 13
smoothSolver:  Solving for Uz, Initial residual = 0.04493145779622088, Final residual = 0.004271665526529465, No Iterations 12
[INFO] MomentumPredictor: 694.436 [ms]
[INFO] MatrixAssemblyPI: 155.158 [ms]
[INFO] MatrixAssemblyPII: 80.541 [ms]
DICPCG:  Solving for p, Initial residual = 0.04413881796027361, Final residual = 0.0004395180088238536, No Iterations 111
[INFO] SolveP: 1954.369 [ms]
time step continuity errors : sum local = 0.004014451253221553, global = 0.0005932174708632159, cumulative = 0.0006264887668214376
[INFO] postSolveP: 42.032 [ms]
smoothSolver:  Solving for nuTilda, Initial residual = 0.01844246917803692, Final residual = 0.001725026224024075, No Iterations 3
[INFO] TimeStep: 4173.557 [ms]
ExecutionTime = 164.57 s  ClockTime = 166 s

Time = 30

velocityDampingConstraint velocityDamping damped 0 (0%) of cells
[INFO] MatrixAssemblyU: 761.151 [ms]
smoothSolver:  Solving for Ux, Initial residual = 0.0107889425766467, Final residual = 0.001048870150166662, No Iterations 12
smoothSolver:  Solving for Uy, Initial residual = 0.04984123361007516, Final residual = 0.004248887305974139, No Iterations 13
smoothSolver:  Solving for Uz, Initial residual = 0.04655180087663552, Final residual = 0.004411248540943343, No Iterations 12
[INFO] MomentumPredictor: 693.08 [ms]
[INFO] MatrixAssemblyPI: 156.21 [ms]
[INFO] MatrixAssemblyPII: 78.592 [ms]
DICPCG:  Solving for p, Initial residual = 0.04503049897239395, Final residual = 0.0004463886543394525, No Iterations 99
[INFO] SolveP: 1742.919 [ms]
time step continuity errors : sum local = 0.004137073642448677, global = 0.0007944977265558511, cumulative = 0.001420986493377289
[INFO] postSolveP: 36.851 [ms]
smoothSolver:  Solving for nuTilda, Initial residual = 0.02706249497719837, Final residual = 0.001603977990432525, No Iterations 3
[INFO] TimeStep: 3949.21 [ms]
ExecutionTime = 169.1 s  ClockTime = 171 s

Time = 31

velocityDampingConstraint velocityDamping damped 0 (0%) of cells
[INFO] MatrixAssemblyU: 756.276 [ms]
smoothSolver:  Solving for Ux, Initial residual = 0.01085192410113107, Final residual = 0.001055009793041298, No Iterations 12
smoothSolver:  Solving for Uy, Initial residual = 0.05214835041155056, Final residual = 0.005193861596214245, No Iterations 12
smoothSolver:  Solving for Uz, Initial residual = 0.04823057683525803, Final residual = 0.004570035962572481, No Iterations 12
[INFO] MomentumPredictor: 679.083 [ms]
[INFO] MatrixAssemblyPI: 154.275 [ms]
[INFO] MatrixAssemblyPII: 78.27800000000001 [ms]
DICPCG:  Solving for p, Initial residual = 0.04628541168898, Final residual = 0.0004598754927535085, No Iterations 100
[INFO] SolveP: 1762.906 [ms]
time step continuity errors : sum local = 0.004315586851467049, global = 0.0009325624385074043, cumulative = 0.002353548931884693
[INFO] postSolveP: 41.891 [ms]
smoothSolver:  Solving for nuTilda, Initial residual = 0.01714813823487289, Final residual = 0.00160563539136283, No Iterations 3
[INFO] TimeStep: 3959.323 [ms]
ExecutionTime = 173.64 s  ClockTime = 175 s

Time = 32

velocityDampingConstraint velocityDamping damped 0 (0%) of cells
[INFO] MatrixAssemblyU: 759.629 [ms]
smoothSolver:  Solving for Ux, Initial residual = 0.01097217387015545, Final residual = 0.001062337681437528, No Iterations 12
smoothSolver:  Solving for Uy, Initial residual = 0.05456107631932802, Final residual = 0.00543536875037979, No Iterations 12
smoothSolver:  Solving for Uz, Initial residual = 0.04979530299469474, Final residual = 0.004774268318163908, No Iterations 12
[INFO] MomentumPredictor: 685.588 [ms]
[INFO] MatrixAssemblyPI: 157.544 [ms]
[INFO] MatrixAssemblyPII: 82.54600000000001 [ms]
DICPCG:  Solving for p, Initial residual = 0.04780057615431669, Final residual = 0.0004766643699099347, No Iterations 102
[INFO] SolveP: 1789.574 [ms]
time step continuity errors : sum local = 0.004527939916746226, global = 0.0009836397695536494, cumulative = 0.003337188701438343
[INFO] postSolveP: 37.2 [ms]
smoothSolver:  Solving for nuTilda, Initial residual = 0.02514155361790304, Final residual = 0.001500985511171248, No Iterations 3
[INFO] TimeStep: 3993.015 [ms]
ExecutionTime = 178.21 s  ClockTime = 180 s

Time = 33

velocityDampingConstraint velocityDamping damped 0 (0%) of cells
[INFO] MatrixAssemblyU: 753.374 [ms]
smoothSolver:  Solving for Ux, Initial residual = 0.01092005624664746, Final residual = 0.001069170159618597, No Iterations 12
smoothSolver:  Solving for Uy, Initial residual = 0.05686172251517595, Final residual = 0.005659927281624177, No Iterations 12
smoothSolver:  Solving for Uz, Initial residual = 0.05193785881674622, Final residual = 0.005043882800786045, No Iterations 12
[INFO] MomentumPredictor: 678.854 [ms]
[INFO] MatrixAssemblyPI: 155.088 [ms]
[INFO] MatrixAssemblyPII: 77.77500000000001 [ms]
DICPCG:  Solving for p, Initial residual = 0.04960886498112209, Final residual = 0.0004891608051607201, No Iterations 100
[INFO] SolveP: 1756.259 [ms]
time step continuity errors : sum local = 0.004702791564400881, global = 0.0009777276137326143, cumulative = 0.004314916315170957
[INFO] postSolveP: 42.234 [ms]
smoothSolver:  Solving for nuTilda, Initial residual = 0.01603691671755044, Final residual = 0.001494627339431845, No Iterations 3
[INFO] TimeStep: 3955.42 [ms]
ExecutionTime = 182.75 s  ClockTime = 184 s

Time = 34

velocityDampingConstraint velocityDamping damped 0 (0%) of cells
[INFO] MatrixAssemblyU: 756.16 [ms]
smoothSolver:  Solving for Ux, Initial residual = 0.01103689253622369, Final residual = 0.001080131835546537, No Iterations 12
smoothSolver:  Solving for Uy, Initial residual = 0.05934848913090332, Final residual = 0.005912738091903586, No Iterations 12
smoothSolver:  Solving for Uz, Initial residual = 0.05444186961405821, Final residual = 0.005339475904267361, No Iterations 12
[INFO] MomentumPredictor: 678.441 [ms]
[INFO] MatrixAssemblyPI: 162.486 [ms]
[INFO] MatrixAssemblyPII: 78.88500000000001 [ms]
DICPCG:  Solving for p, Initial residual = 0.05174685652584242, Final residual = 0.0005126629173358304, No Iterations 96
[INFO] SolveP: 1684.55 [ms]
time step continuity errors : sum local = 0.004984737010891071, global = 0.0009076386821451467, cumulative = 0.005222554997316104
[INFO] postSolveP: 36.6 [ms]
smoothSolver:  Solving for nuTilda, Initial residual = 0.02347776499866846, Final residual = 0.001405460711137915, No Iterations 3
[INFO] TimeStep: 3880.72 [ms]
ExecutionTime = 187.22 s  ClockTime = 189 s

Time = 35

velocityDampingConstraint velocityDamping damped 0 (0%) of cells
[INFO] MatrixAssemblyU: 772.672 [ms]
smoothSolver:  Solving for Ux, Initial residual = 0.01109425669656449, Final residual = 0.001093711152974197, No Iterations 12
smoothSolver:  Solving for Uy, Initial residual = 0.06191317485815678, Final residual = 0.005280524721158987, No Iterations 13
smoothSolver:  Solving for Uz, Initial residual = 0.05697383114472914, Final residual = 0.005615709112508583, No Iterations 12
[INFO] MomentumPredictor: 693.327 [ms]
[INFO] MatrixAssemblyPI: 154.422 [ms]
[INFO] MatrixAssemblyPII: 79.367 [ms]
DICPCG:  Solving for p, Initial residual = 0.0535923907334097, Final residual = 0.0005318638462666388, No Iterations 94
[INFO] SolveP: 1665.401 [ms]
time step continuity errors : sum local = 0.005230159636735647, global = 0.0007812172023308708, cumulative = 0.006003772199646974
[INFO] postSolveP: 40.956 [ms]
smoothSolver:  Solving for nuTilda, Initial residual = 0.01510715755480384, Final residual = 0.00139517828671215, No Iterations 3
[INFO] TimeStep: 3891.108 [ms]
ExecutionTime = 191.69 s  ClockTime = 193 s

Time = 36

velocityDampingConstraint velocityDamping damped 0 (0%) of cells
[INFO] MatrixAssemblyU: 745.328 [ms]
smoothSolver:  Solving for Ux, Initial residual = 0.01136650141189991, Final residual = 0.001116142540160734, No Iterations 12
smoothSolver:  Solving for Uy, Initial residual = 0.06393015089816377, Final residual = 0.005541411504525997, No Iterations 13
smoothSolver:  Solving for Uz, Initial residual = 0.05963368168156585, Final residual = 0.005885382725644428, No Iterations 12
[INFO] MomentumPredictor: 694.576 [ms]
[INFO] MatrixAssemblyPI: 155.713 [ms]
[INFO] MatrixAssemblyPII: 76.27 [ms]
DICPCG:  Solving for p, Initial residual = 0.05495480034570521, Final residual = 0.0005431944464383523, No Iterations 93
[INFO] SolveP: 1635.857 [ms]
time step continuity errors : sum local = 0.005389142426265618, global = 0.0006024148550624338, cumulative = 0.006606187054709408
[INFO] postSolveP: 36.896 [ms]
smoothSolver:  Solving for nuTilda, Initial residual = 0.02202734492306665, Final residual = 0.001318116936083469, No Iterations 3
[INFO] TimeStep: 3827.165 [ms]
ExecutionTime = 196.11 s  ClockTime = 198 s

Time = 37

velocityDampingConstraint velocityDamping damped 0 (0%) of cells
[INFO] MatrixAssemblyU: 743.563 [ms]
smoothSolver:  Solving for Ux, Initial residual = 0.01157880518036356, Final residual = 0.001142312023961242, No Iterations 12
smoothSolver:  Solving for Uy, Initial residual = 0.06576449259672794, Final residual = 0.0057876899411296, No Iterations 13
smoothSolver:  Solving for Uz, Initial residual = 0.06222938969973163, Final residual = 0.006108253191924272, No Iterations 12
[INFO] MomentumPredictor: 691.953 [ms]
[INFO] MatrixAssemblyPI: 155.992 [ms]
[INFO] MatrixAssemblyPII: 72.98699999999999 [ms]
DICPCG:  Solving for p, Initial residual = 0.05673159492860239, Final residual = 0.0005611750069505328, No Iterations 91
[INFO] SolveP: 1605.95 [ms]
time step continuity errors : sum local = 0.005613288732732404, global = 0.0004016279818668787, cumulative = 0.007007815036576287
[INFO] postSolveP: 43.708 [ms]
smoothSolver:  Solving for nuTilda, Initial residual = 0.01427280450620799, Final residual = 0.001306147329268687, No Iterations 3
[INFO] TimeStep: 3810.36 [ms]
ExecutionTime = 200.49 s  ClockTime = 202 s

Time = 38

velocityDampingConstraint velocityDamping damped 0 (0%) of cells
[INFO] MatrixAssemblyU: 756.588 [ms]
smoothSolver:  Solving for Ux, Initial residual = 0.01189426307154965, Final residual = 0.001165347508015762, No Iterations 12
smoothSolver:  Solving for Uy, Initial residual = 0.06734257438661523, Final residual = 0.005972869602851181, No Iterations 13
smoothSolver:  Solving for Uz, Initial residual = 0.06492142728955788, Final residual = 0.006300208562152346, No Iterations 12
[INFO] MomentumPredictor: 694.3390000000001 [ms]
[INFO] MatrixAssemblyPI: 155.257 [ms]
[INFO] MatrixAssemblyPII: 79.31999999999999 [ms]
DICPCG:  Solving for p, Initial residual = 0.057446573779114, Final residual = 0.0005667366031714561, No Iterations 89
[INFO] SolveP: 1569.993 [ms]
time step continuity errors : sum local = 0.00570152251110568, global = 0.0001823378926626367, cumulative = 0.007190152929238924
[INFO] postSolveP: 37.164 [ms]
smoothSolver:  Solving for nuTilda, Initial residual = 0.02075518789042769, Final residual = 0.001240268885926865, No Iterations 3
[INFO] TimeStep: 3775.355 [ms]
ExecutionTime = 204.85 s  ClockTime = 207 s

Time = 39

velocityDampingConstraint velocityDamping damped 0 (0%) of cells
[INFO] MatrixAssemblyU: 753.468 [ms]
smoothSolver:  Solving for Ux, Initial residual = 0.01198082802903585, Final residual = 0.001177489971236034, No Iterations 12
smoothSolver:  Solving for Uy, Initial residual = 0.06884094338465933, Final residual = 0.006141404544403625, No Iterations 13
smoothSolver:  Solving for Uz, Initial residual = 0.06736251405673715, Final residual = 0.006512228937697553, No Iterations 12
[INFO] MomentumPredictor: 691.497 [ms]
[INFO] MatrixAssemblyPI: 154.671 [ms]
[INFO] MatrixAssemblyPII: 75.15000000000001 [ms]
DICPCG:  Solving for p, Initial residual = 0.05743338723024276, Final residual = 0.0005613636868898314, No Iterations 89
[INFO] SolveP: 1566.864 [ms]
time step continuity errors : sum local = 0.005671142440219463, global = -4.552805128895895e-05, cumulative = 0.007144624877949965
[INFO] postSolveP: 42.247 [ms]
smoothSolver:  Solving for nuTilda, Initial residual = 0.01354165849532499, Final residual = 0.001229964002953287, No Iterations 3
[INFO] TimeStep: 3774.775 [ms]
ExecutionTime = 209.2 s  ClockTime = 211 s

Time = 40

velocityDampingConstraint velocityDamping damped 0 (0%) of cells
[INFO] MatrixAssemblyU: 750.852 [ms]
smoothSolver:  Solving for Ux, Initial residual = 0.01211372232789264, Final residual = 0.001187154364788532, No Iterations 12
smoothSolver:  Solving for Uy, Initial residual = 0.07003432694630282, Final residual = 0.006307764254454134, No Iterations 13
smoothSolver:  Solving for Uz, Initial residual = 0.06914918991595756, Final residual = 0.006744421294198951, No Iterations 12
[INFO] MomentumPredictor: 693.643 [ms]
[INFO] MatrixAssemblyPI: 155.478 [ms]
[INFO] MatrixAssemblyPII: 76.172 [ms]
DICPCG:  Solving for p, Initial residual = 0.05759927419994731, Final residual = 0.0005698526601074853, No Iterations 87
[INFO] SolveP: 1530.334 [ms]
time step continuity errors : sum local = 0.005767196530983917, global = -0.000268291657318861, cumulative = 0.006876333220631104
[INFO] postSolveP: 37.575 [ms]
smoothSolver:  Solving for nuTilda, Initial residual = 0.01963463548495969, Final residual = 0.001174721433291455, No Iterations 3
[INFO] TimeStep: 3730.192 [ms]
ExecutionTime = 213.53 s  ClockTime = 215 s

Time = 41

velocityDampingConstraint velocityDamping damped 0 (0%) of cells
[INFO] MatrixAssemblyU: 759.208 [ms]
smoothSolver:  Solving for Ux, Initial residual = 0.01204198907701229, Final residual = 0.00119524036004614, No Iterations 12
smoothSolver:  Solving for Uy, Initial residual = 0.07070821879698473, Final residual = 0.006472694538157291, No Iterations 13
smoothSolver:  Solving for Uz, Initial residual = 0.07026084681201099, Final residual = 0.006941715509751555, No Iterations 12
[INFO] MomentumPredictor: 699.394 [ms]
[INFO] MatrixAssemblyPI: 156.785 [ms]
[INFO] MatrixAssemblyPII: 77.245 [ms]
DICPCG:  Solving for p, Initial residual = 0.05722029221541627, Final residual = 0.000569777441591208, No Iterations 85
[INFO] SolveP: 1507.374 [ms]
time step continuity errors : sum local = 0.005768229376518872, global = -0.000465304943711118, cumulative = 0.006411028276919986
[INFO] postSolveP: 41.856 [ms]
smoothSolver:  Solving for nuTilda, Initial residual = 0.01293094935141778, Final residual = 0.001166420329237006, No Iterations 3
[INFO] TimeStep: 3725.522 [ms]
ExecutionTime = 217.83 s  ClockTime = 220 s

Time = 42

velocityDampingConstraint velocityDamping damped 0 (0%) of cells
[INFO] MatrixAssemblyU: 788.631 [ms]
smoothSolver:  Solving for Ux, Initial residual = 0.01208024905791564, Final residual = 0.001201684971664514, No Iterations 12
smoothSolver:  Solving for Uy, Initial residual = 0.07125209435128467, Final residual = 0.006659670715255191, No Iterations 13
smoothSolver:  Solving for Uz, Initial residual = 0.07079405882785307, Final residual = 0.006046032766164972, No Iterations 13
[INFO] MomentumPredictor: 709.316 [ms]
[INFO] MatrixAssemblyPI: 155.453 [ms]
[INFO] MatrixAssemblyPII: 80.07299999999999 [ms]
DICPCG:  Solving for p, Initial residual = 0.05691479949169551, Final residual = 0.0005689548015678726, No Iterations 85
[INFO] SolveP: 1508.806 [ms]
time step continuity errors : sum local = 0.005753743143218103, global = -0.0006623749500372821, cumulative = 0.005748653326882704
[INFO] postSolveP: 36.673 [ms]
smoothSolver:  Solving for nuTilda, Initial residual = 0.01862419876669581, Final residual = 0.001118214028203537, No Iterations 3
[INFO] TimeStep: 3758.354 [ms]
ExecutionTime = 222.17 s  ClockTime = 224 s

Time = 43

velocityDampingConstraint velocityDamping damped 0 (0%) of cells
[INFO] MatrixAssemblyU: 751.3 [ms]
smoothSolver:  Solving for Ux, Initial residual = 0.01198563126252982, Final residual = 0.001029987830663869, No Iterations 13
smoothSolver:  Solving for Uy, Initial residual = 0.07197825449604023, Final residual = 0.006877383822290579, No Iterations 13
smoothSolver:  Solving for Uz, Initial residual = 0.07044473173809597, Final residual = 0.00612669333126819, No Iterations 13
[INFO] MomentumPredictor: 726.85 [ms]
[INFO] MatrixAssemblyPI: 154.601 [ms]
[INFO] MatrixAssemblyPII: 80.541 [ms]
DICPCG:  Solving for p, Initial residual = 0.05623125449752805, Final residual = 0.000559254654681702, No Iterations 88
[INFO] SolveP: 1554.216 [ms]
time step continuity errors : sum local = 0.005636250890540174, global = -0.0008622407923176245, cumulative = 0.004886412534565079
[INFO] postSolveP: 37.714 [ms]
smoothSolver:  Solving for nuTilda, Initial residual = 0.01239552470689892, Final residual = 0.001108937554669306, No Iterations 3
[INFO] TimeStep: 3789.127 [ms]
ExecutionTime = 226.53 s  ClockTime = 228 s

Time = 44

velocityDampingConstraint velocityDamping damped 0 (0%) of cells
[INFO] MatrixAssemblyU: 747.465 [ms]
smoothSolver:  Solving for Ux, Initial residual = 0.01201149651819063, Final residual = 0.001039321515991401, No Iterations 13
smoothSolver:  Solving for Uy, Initial residual = 0.07246850144342618, Final residual = 0.007082408899828936, No Iterations 13
smoothSolver:  Solving for Uz, Initial residual = 0.06984700250042662, Final residual = 0.006192711364817011, No Iterations 13
[INFO] MomentumPredictor: 726.7190000000001 [ms]
[INFO] MatrixAssemblyPI: 155.615 [ms]
[INFO] MatrixAssemblyPII: 73.196 [ms]
DICPCG:  Solving for p, Initial residual = 0.05546864359668521, Final residual = 0.0005497285804705893, No Iterations 107
[INFO] SolveP: 1884.239 [ms]
time step continuity errors : sum local = 0.005494357847309067, global = -0.001043259866463277, cumulative = 0.003843152668101802
[INFO] postSolveP: 44.276 [ms]
smoothSolver:  Solving for nuTilda, Initial residual = 0.01766955851558193, Final residual = 0.001065045678412405, No Iterations 3
[INFO] TimeStep: 4112.978 [ms]
ExecutionTime = 231.23 s  ClockTime = 233 s

Time = 45

velocityDampingConstraint velocityDamping damped 0 (0%) of cells
[INFO] MatrixAssemblyU: 753.796 [ms]
smoothSolver:  Solving for Ux, Initial residual = 0.01188264849104005, Final residual = 0.001048850734470642, No Iterations 13
smoothSolver:  Solving for Uy, Initial residual = 0.07255673870693802, Final residual = 0.007211458868942827, No Iterations 13
smoothSolver:  Solving for Uz, Initial residual = 0.06906534023074787, Final residual = 0.006246314477147358, No Iterations 13
[INFO] MomentumPredictor: 723.374 [ms]
[INFO] MatrixAssemblyPI: 154.57 [ms]
[INFO] MatrixAssemblyPII: 76.012 [ms]
DICPCG:  Solving for p, Initial residual = 0.05507398258928026, Final residual = 0.0005479602606506009, No Iterations 87
[INFO] SolveP: 1538.522 [ms]
time step continuity errors : sum local = 0.005399404801386328, global = -0.001194528873992939, cumulative = 0.002648623794108863
[INFO] postSolveP: 35.419 [ms]
smoothSolver:  Solving for nuTilda, Initial residual = 0.01183961371336972, Final residual = 0.001054160553436514, No Iterations 3
[INFO] TimeStep: 3771.497 [ms]
ExecutionTime = 235.58 s  ClockTime = 238 s

Time = 46

velocityDampingConstraint velocityDamping damped 0 (0%) of cells
[INFO] MatrixAssemblyU: 748.891 [ms]
smoothSolver:  Solving for Ux, Initial residual = 0.01174961095226439, Final residual = 0.001050760885190703, No Iterations 13
smoothSolver:  Solving for Uy, Initial residual = 0.0722266401870878, Final residual = 0.006179968394141367, No Iterations 14
smoothSolver:  Solving for Uz, Initial residual = 0.06772403770313545, Final residual = 0.006278664840459244, No Iterations 13
[INFO] MomentumPredictor: 736.612 [ms]
[INFO] MatrixAssemblyPI: 156.464 [ms]
[INFO] MatrixAssemblyPII: 74.32299999999999 [ms]
DICPCG:  Solving for p, Initial residual = 0.05440919916928878, Final residual = 0.0005434613584814639, No Iterations 218
[INFO] SolveP: 3812.279 [ms]
time step continuity errors : sum local = 0.005302706368204507, global = -0.0003098908529252107, cumulative = 0.002338732941183652
[INFO] postSolveP: 36.54 [ms]
smoothSolver:  Solving for nuTilda, Initial residual = 0.01677619510381833, Final residual = 0.001015729431675914, No Iterations 3
[INFO] TimeStep: 6046.722 [ms]
ExecutionTime = 242.18 s  ClockTime = 244 s

Time = 47

velocityDampingConstraint velocityDamping damped 0 (0%) of cells
[INFO] MatrixAssemblyU: 757.649 [ms]
smoothSolver:  Solving for Ux, Initial residual = 0.01170531945933662, Final residual = 0.001056878940106126, No Iterations 13
smoothSolver:  Solving for Uy, Initial residual = 0.07214389399891304, Final residual = 0.006177789765476505, No Iterations 14
smoothSolver:  Solving for Uz, Initial residual = 0.06680557412869489, Final residual = 0.00633408400244208, No Iterations 13
[INFO] MomentumPredictor: 740.811 [ms]
[INFO] MatrixAssemblyPI: 155.285 [ms]
[INFO] MatrixAssemblyPII: 77.967 [ms]
DICPCG:  Solving for p, Initial residual = 0.05575346107816024, Final residual = 0.0005503715425342888, No Iterations 86
[INFO] SolveP: 1514.649 [ms]
time step continuity errors : sum local = 0.005134486095847005, global = 0.0006080085508610338, cumulative = 0.002946741492044686
[INFO] postSolveP: 35.938 [ms]
smoothSolver:  Solving for nuTilda, Initial residual = 0.01131150095158833, Final residual = 0.00100629127210386, No Iterations 3
[INFO] TimeStep: 3768.048 [ms]
ExecutionTime = 246.54 s  ClockTime = 249 s

Time = 48

velocityDampingConstraint velocityDamping damped 0 (0%) of cells
[INFO] MatrixAssemblyU: 746.721 [ms]
smoothSolver:  Solving for Ux, Initial residual = 0.01160598578361429, Final residual = 0.001060971167165454, No Iterations 13
smoothSolver:  Solving for Uy, Initial residual = 0.07132424721340552, Final residual = 0.006149586019106695, No Iterations 14
smoothSolver:  Solving for Uz, Initial residual = 0.06536518041375444, Final residual = 0.006315213216236917, No Iterations 13
[INFO] MomentumPredictor: 738.896 [ms]
[INFO] MatrixAssemblyPI: 151.849 [ms]
[INFO] MatrixAssemblyPII: 72.76000000000001 [ms]
DICPCG:  Solving for p, Initial residual = 0.05462816007814745, Final residual = 0.0005332814372371908, No Iterations 223
[INFO] SolveP: 3900.372 [ms]
time step continuity errors : sum local = 0.004955150508720338, global = -0.0001040158536221362, cumulative = 0.00284272563842255
[INFO] postSolveP: 36.879 [ms]
smoothSolver:  Solving for nuTilda, Initial residual = 0.01598148423171554, Final residual = 0.0009738263338801084, No Iterations 3
[INFO] TimeStep: 6133.491 [ms]
ExecutionTime = 253.23 s  ClockTime = 255 s

Time = 49

velocityDampingConstraint velocityDamping damped 0 (0%) of cells
[INFO] MatrixAssemblyU: 761.412 [ms]
smoothSolver:  Solving for Ux, Initial residual = 0.01136426284682283, Final residual = 0.001064850108528183, No Iterations 13
smoothSolver:  Solving for Uy, Initial residual = 0.07097460619395242, Final residual = 0.00614890401512869, No Iterations 14
smoothSolver:  Solving for Uz, Initial residual = 0.06454802513975938, Final residual = 0.006313085721268825, No Iterations 13
[INFO] MomentumPredictor: 742.1079999999999 [ms]
[INFO] MatrixAssemblyPI: 155.58 [ms]
[INFO] MatrixAssemblyPII: 74.961 [ms]
DICPCG:  Solving for p, Initial residual = 0.05184278237728133, Final residual = 0.0005047191929322763, No Iterations 90
[INFO] SolveP: 1584.689 [ms]
time step continuity errors : sum local = 0.004860007416154928, global = -0.0003063216324151034, cumulative = 0.002536404006007447
[INFO] postSolveP: 37.996 [ms]
smoothSolver:  Solving for nuTilda, Initial residual = 0.01085805611413449, Final residual = 0.0009679129816152906, No Iterations 3
[INFO] TimeStep: 3837.826 [ms]
ExecutionTime = 257.67 s  ClockTime = 260 s

Time = 50

velocityDampingConstraint velocityDamping damped 0 (0%) of cells
[INFO] MatrixAssemblyU: 747.449 [ms]
smoothSolver:  Solving for Ux, Initial residual = 0.01134586181653158, Final residual = 0.001065322872211436, No Iterations 13
smoothSolver:  Solving for Uy, Initial residual = 0.06971173794333131, Final residual = 0.00606996571570466, No Iterations 14
smoothSolver:  Solving for Uz, Initial residual = 0.06349585810565039, Final residual = 0.006280517281849875, No Iterations 13
[INFO] MomentumPredictor: 738.069 [ms]
[INFO] MatrixAssemblyPI: 155.437 [ms]
[INFO] MatrixAssemblyPII: 70.47799999999999 [ms]
DICPCG:  Solving for p, Initial residual = 0.05168922439129098, Final residual = 0.0005157462080138021, No Iterations 97
[INFO] SolveP: 1721.732 [ms]
time step continuity errors : sum local = 0.004931673444236688, global = -0.0006007670297366539, cumulative = 0.001935636976270793
[INFO] postSolveP: 38.276 [ms]
smoothSolver:  Solving for nuTilda, Initial residual = 0.01529141868872228, Final residual = 0.0009413770385988503, No Iterations 3
[INFO] TimeStep: 3967.299 [ms]
ExecutionTime = 262.21 s  ClockTime = 264 s

End

Finalising parallel run
