/*---------------------------------------------------------------------------*\
| =========                 |                                                 |
| \\      /  F ield         | OpenFOAM: The Open Source CFD Toolbox           |
|  \\    /   O peration     | Version:  2312                                  |
|   \\  /    A nd           | Website:  www.openfoam.com                      |
|    \\/     M anipulation  |                                                 |
\*---------------------------------------------------------------------------*/
Build  : a46b310f-20240104 OPENFOAM=2312 version=v2312
Arch   : "LSB;label=32;scalar=64"
Exec   : icoFoam -parallel -case /hppfs/scratch/0B/di35yan/lidDriven3D/workspace/124693d366a8bf237691fbd7d1a86098/case
Date   : Feb 17 2024
Time   : 07:59:22
Host   : i20r02c04s04
PID    : 112056
I/O    : uncollated
Case   : /hppfs/scratch/0B/di35yan/lidDriven3D/workspace/124693d366a8bf237691fbd7d1a86098/case
nProcs : 112
Hosts  :
(
    (i20r02c04s04 112)
)
Pstream initialized with:
    floatTransfer      : false
    nProcsSimpleSum    : 0
    nonBlockingExchange: 0 (tuning: 0)
    exchange algorithm : 0
    commsType          : nonBlocking
    polling iterations : 0
trapFpe: Floating point exception trapping enabled (FOAM_SIGFPE).
fileModificationChecking : Monitoring run-time modified files using timeStampMaster (fileModificationSkew 5, maxFileModificationPolls 20)
allowSystemOperations : Allowing user-supplied system call operations

// * * * * * * * * * * * * * * * * * * * * * * * * * * * * * * * * * * * * * //
Create time

--> FOAM Warning : 
    From void* Foam::dlLibraryTable::openLibrary(const Foam::fileName&, bool)
    in file db/dynamicLibrary/dlLibraryTable/dlLibraryTable.C at line 188
    Could not load "libpetscFoam.so"
libpetscFoam.so: cannot open shared object file: No such file or directory
Create mesh for time = 0


PISO: Operating solver in PISO mode

Reading transportProperties

Reading field p

Reading field U

Reading/calculating face flux field phi


Starting time loop

Time = 0.000166

Courant Number mean: 8.14055e-18 max: 3.11001e-14
DILUPBiCGStab:  Solving for Ux, Initial residual = 1, Final residual = 0.0163142, No Iterations 5
DILUPBiCGStab:  Solving for Uy:  solution singularity
DILUPBiCGStab:  Solving for Uz:  solution singularity
DICPCG:  Solving for p, Initial residual = 1, Final residual = 9.96695e-05, No Iterations 943
time step continuity errors : sum local = 4.02738e-09, global = 8.2337e-22, cumulative = 8.2337e-22
DICPCG:  Solving for p, Initial residual = 0.809464, Final residual = 9.71819e-05, No Iterations 940
time step continuity errors : sum local = 4.79333e-09, global = 7.56184e-22, cumulative = 1.57955e-21
ExecutionTime = 51.08 s  ClockTime = 64 s

Time = 0.000332

Courant Number mean: 0.0128237 max: 0.426584
DILUPBiCGStab:  Solving for Ux, Initial residual = 0.116949, Final residual = 0.0106583, No Iterations 5
DILUPBiCGStab:  Solving for Uy, Initial residual = 0.460127, Final residual = 0.0366712, No Iterations 5
DILUPBiCGStab:  Solving for Uz, Initial residual = 0.988808, Final residual = 0.085815, No Iterations 5
DICPCG:  Solving for p, Initial residual = 0.889498, Final residual = 9.68661e-05, No Iterations 926
time step continuity errors : sum local = 1.01366e-08, global = -4.60536e-22, cumulative = 1.11902e-21
DICPCG:  Solving for p, Initial residual = 0.83515, Final residual = 9.8821e-05, No Iterations 924
time step continuity errors : sum local = 1.05577e-08, global = 3.38629e-22, cumulative = 1.45765e-21
ExecutionTime = 88.06 s  ClockTime = 101 s

Time = 0.000498

Courant Number mean: 0.0197777 max: 0.492419
DILUPBiCGStab:  Solving for Ux, Initial residual = 0.0543992, Final residual = 0.00401877, No Iterations 5
DILUPBiCGStab:  Solving for Uy, Initial residual = 0.226299, Final residual = 0.019106, No Iterations 5
DILUPBiCGStab:  Solving for Uz, Initial residual = 0.844604, Final residual = 0.0617324, No Iterations 5
DICPCG:  Solving for p, Initial residual = 0.917827, Final residual = 9.64768e-05, No Iterations 436
time step continuity errors : sum local = 1.10665e-08, global = 1.12276e-21, cumulative = 2.5804e-21
DICPCG:  Solving for p, Initial residual = 0.884653, Final residual = 9.96698e-05, No Iterations 435
time step continuity errors : sum local = 1.09563e-08, global = 2.13469e-22, cumulative = 2.79387e-21
ExecutionTime = 106.23 s  ClockTime = 119 s

Time = 0.000664

Courant Number mean: 0.0238537 max: 0.471957
DILUPBiCGStab:  Solving for Ux, Initial residual = 0.0385472, Final residual = 0.00327846, No Iterations 5
DILUPBiCGStab:  Solving for Uy, Initial residual = 0.17374, Final residual = 0.0159082, No Iterations 5
DILUPBiCGStab:  Solving for Uz, Initial residual = 0.733961, Final residual = 0.0467766, No Iterations 5
DICPCG:  Solving for p, Initial residual = 0.899644, Final residual = 9.84259e-05, No Iterations 433
time step continuity errors : sum local = 1.26471e-08, global = 1.83753e-22, cumulative = 2.97762e-21
DICPCG:  Solving for p, Initial residual = 0.838323, Final residual = 9.63889e-05, No Iterations 432
time step continuity errors : sum local = 1.21157e-08, global = 2.71749e-22, cumulative = 3.24937e-21
ExecutionTime = 124.21 s  ClockTime = 137 s

Time = 0.00083

Courant Number mean: 0.0273369 max: 0.505621
DILUPBiCGStab:  Solving for Ux, Initial residual = 0.0323548, Final residual = 0.00290001, No Iterations 5
DILUPBiCGStab:  Solving for Uy, Initial residual = 0.130124, Final residual = 0.0134632, No Iterations 5
DILUPBiCGStab:  Solving for Uz, Initial residual = 0.67742, Final residual = 0.0393791, No Iterations 5
DICPCG:  Solving for p, Initial residual = 0.91528, Final residual = 9.82928e-05, No Iterations 919
time step continuity errors : sum local = 1.14431e-08, global = 9.18514e-22, cumulative = 4.16789e-21
DICPCG:  Solving for p, Initial residual = 0.875069, Final residual = 9.76303e-05, No Iterations 918
time step continuity errors : sum local = 1.12133e-08, global = 3.64293e-22, cumulative = 4.53218e-21
ExecutionTime = 160.94 s  ClockTime = 174 s

Time = 0.000996

Courant Number mean: 0.0300363 max: 0.478313
DILUPBiCGStab:  Solving for Ux, Initial residual = 0.0271779, Final residual = 0.00263979, No Iterations 5
DILUPBiCGStab:  Solving for Uy, Initial residual = 0.112187, Final residual = 0.0107257, No Iterations 5
DILUPBiCGStab:  Solving for Uz, Initial residual = 0.586165, Final residual = 0.0311376, No Iterations 5
DICPCG:  Solving for p, Initial residual = 0.896517, Final residual = 9.9067e-05, No Iterations 432
time step continuity errors : sum local = 1.36873e-08, global = 1.2207e-21, cumulative = 5.75288e-21
DICPCG:  Solving for p, Initial residual = 0.831881, Final residual = 9.69727e-05, No Iterations 427
time step continuity errors : sum local = 1.25137e-08, global = -4.79515e-22, cumulative = 5.27337e-21
ExecutionTime = 178.84 s  ClockTime = 192 s

Time = 0.001162

Courant Number mean: 0.0324566 max: 0.512431
DILUPBiCGStab:  Solving for Ux, Initial residual = 0.024727, Final residual = 0.00245599, No Iterations 5
DILUPBiCGStab:  Solving for Uy, Initial residual = 0.0989308, Final residual = 0.00979731, No Iterations 5
DILUPBiCGStab:  Solving for Uz, Initial residual = 0.565678, Final residual = 0.0305761, No Iterations 5
DICPCG:  Solving for p, Initial residual = 0.911214, Final residual = 9.85174e-05, No Iterations 881
time step continuity errors : sum local = 1.14273e-08, global = 1.39312e-22, cumulative = 5.41268e-21
DICPCG:  Solving for p, Initial residual = 0.864144, Final residual = 9.77461e-05, No Iterations 917
time step continuity errors : sum local = 1.12103e-08, global = 4.82892e-22, cumulative = 5.89557e-21
ExecutionTime = 214.84 s  ClockTime = 227 s

Time = 0.001328

Courant Number mean: 0.0344956 max: 0.481242
DILUPBiCGStab:  Solving for Ux, Initial residual = 0.0223641, Final residual = 0.00228015, No Iterations 5
DILUPBiCGStab:  Solving for Uy, Initial residual = 0.0878136, Final residual = 0.00828591, No Iterations 5
DILUPBiCGStab:  Solving for Uz, Initial residual = 0.522102, Final residual = 0.0252974, No Iterations 5
DICPCG:  Solving for p, Initial residual = 0.892085, Final residual = 9.89345e-05, No Iterations 915
time step continuity errors : sum local = 1.18352e-08, global = 2.83189e-22, cumulative = 6.17876e-21
DICPCG:  Solving for p, Initial residual = 0.825148, Final residual = 9.89201e-05, No Iterations 899
time step continuity errors : sum local = 1.19946e-08, global = -6.38393e-22, cumulative = 5.54037e-21
ExecutionTime = 251.2 s  ClockTime = 264 s

Time = 0.001494

Courant Number mean: 0.0363889 max: 0.518368
DILUPBiCGStab:  Solving for Ux, Initial residual = 0.0207279, Final residual = 0.00211575, No Iterations 5
DILUPBiCGStab:  Solving for Uy, Initial residual = 0.082808, Final residual = 0.00782505, No Iterations 5
DILUPBiCGStab:  Solving for Uz, Initial residual = 0.514336, Final residual = 0.0248008, No Iterations 5
DICPCG:  Solving for p, Initial residual = 0.907434, Final residual = 9.97165e-05, No Iterations 806
time step continuity errors : sum local = 1.15223e-08, global = 6.04572e-22, cumulative = 6.14494e-21
DICPCG:  Solving for p, Initial residual = 0.855933, Final residual = 9.97855e-05, No Iterations 805
time step continuity errors : sum local = 1.14161e-08, global = 1.40099e-21, cumulative = 7.54593e-21
ExecutionTime = 283.55 s  ClockTime = 296 s

Time = 0.00166

Courant Number mean: 0.0380417 max: 0.483866
DILUPBiCGStab:  Solving for Ux, Initial residual = 0.0195386, Final residual = 0.0020047, No Iterations 5
DILUPBiCGStab:  Solving for Uy, Initial residual = 0.0742321, Final residual = 0.00679013, No Iterations 5
DILUPBiCGStab:  Solving for Uz, Initial residual = 0.489859, Final residual = 0.0230616, No Iterations 5
DICPCG:  Solving for p, Initial residual = 0.890545, Final residual = 9.9192e-05, No Iterations 899
time step continuity errors : sum local = 1.19332e-08, global = 4.92792e-22, cumulative = 8.03872e-21
DICPCG:  Solving for p, Initial residual = 0.820517, Final residual = 9.94967e-05, No Iterations 897
time step continuity errors : sum local = 1.21177e-08, global = 1.04272e-21, cumulative = 9.08144e-21
ExecutionTime = 319.49 s  ClockTime = 332 s

Time = 0.001826

Courant Number mean: 0.0396165 max: 0.524636
DILUPBiCGStab:  Solving for Ux, Initial residual = 0.0183553, Final residual = 0.00186423, No Iterations 5
DILUPBiCGStab:  Solving for Uy, Initial residual = 0.0727509, Final residual = 0.00656786, No Iterations 5
DILUPBiCGStab:  Solving for Uz, Initial residual = 0.490186, Final residual = 0.021154, No Iterations 5
DICPCG:  Solving for p, Initial residual = 0.907585, Final residual = 9.75451e-05, No Iterations 806
time step continuity errors : sum local = 1.15631e-08, global = 1.36328e-21, cumulative = 1.04447e-20
DICPCG:  Solving for p, Initial residual = 0.851545, Final residual = 9.85752e-05, No Iterations 802
time step continuity errors : sum local = 1.15868e-08, global = 4.19977e-22, cumulative = 1.08647e-20
ExecutionTime = 351.78 s  ClockTime = 364 s

Time = 0.001992

Courant Number mean: 0.0410139 max: 0.48706
DILUPBiCGStab:  Solving for Ux, Initial residual = 0.0177007, Final residual = 0.00178993, No Iterations 5
DILUPBiCGStab:  Solving for Uy, Initial residual = 0.0659937, Final residual = 0.0057779, No Iterations 5
DILUPBiCGStab:  Solving for Uz, Initial residual = 0.47918, Final residual = 0.022053, No Iterations 5
DICPCG:  Solving for p, Initial residual = 0.891744, Final residual = 9.82559e-05, No Iterations 893
time step continuity errors : sum local = 1.21729e-08, global = -1.48832e-22, cumulative = 1.07159e-20
DICPCG:  Solving for p, Initial residual = 0.82025, Final residual = 9.55974e-05, No Iterations 892
time step continuity errors : sum local = 1.19735e-08, global = 1.68597e-21, cumulative = 1.24018e-20
ExecutionTime = 387.48 s  ClockTime = 399 s

Time = 0.002158

Courant Number mean: 0.0423725 max: 0.53171
DILUPBiCGStab:  Solving for Ux, Initial residual = 0.0168032, Final residual = 0.00166958, No Iterations 5
DILUPBiCGStab:  Solving for Uy, Initial residual = 0.0661191, Final residual = 0.00570373, No Iterations 5
DILUPBiCGStab:  Solving for Uz, Initial residual = 0.480473, Final residual = 0.0195519, No Iterations 5
DICPCG:  Solving for p, Initial residual = 0.908306, Final residual = 9.98653e-05, No Iterations 804
time step continuity errors : sum local = 1.22933e-08, global = 4.4119e-22, cumulative = 1.2843e-20
DICPCG:  Solving for p, Initial residual = 0.848777, Final residual = 9.69246e-05, No Iterations 804
time step continuity errors : sum local = 1.18484e-08, global = 1.32201e-21, cumulative = 1.4165e-20
ExecutionTime = 419.83 s  ClockTime = 431 s

Time = 0.002324

Courant Number mean: 0.0435872 max: 0.49017
DILUPBiCGStab:  Solving for Ux, Initial residual = 0.016529, Final residual = 0.00163936, No Iterations 5
DILUPBiCGStab:  Solving for Uy, Initial residual = 0.0607397, Final residual = 0.00506465, No Iterations 5
DILUPBiCGStab:  Solving for Uz, Initial residual = 0.471746, Final residual = 0.0201228, No Iterations 5
DICPCG:  Solving for p, Initial residual = 0.893798, Final residual = 9.99989e-05, No Iterations 890
time step continuity errors : sum local = 1.28554e-08, global = 7.06472e-22, cumulative = 1.48715e-20
DICPCG:  Solving for p, Initial residual = 0.821153, Final residual = 9.66687e-05, No Iterations 889
time step continuity errors : sum local = 1.25456e-08, global = 2.19847e-21, cumulative = 1.707e-20
ExecutionTime = 455.44 s  ClockTime = 467 s

Time = 0.00249

Courant Number mean: 0.0447881 max: 0.5397
DILUPBiCGStab:  Solving for Ux, Initial residual = 0.0157624, Final residual = 0.00151498, No Iterations 5
DILUPBiCGStab:  Solving for Uy, Initial residual = 0.0615021, Final residual = 0.00506898, No Iterations 5
DILUPBiCGStab:  Solving for Uz, Initial residual = 0.477969, Final residual = 0.0185843, No Iterations 5
DICPCG:  Solving for p, Initial residual = 0.909196, Final residual = 9.85494e-05, No Iterations 852
time step continuity errors : sum local = 1.26492e-08, global = 3.81204e-22, cumulative = 1.74512e-20
DICPCG:  Solving for p, Initial residual = 0.846818, Final residual = 9.78605e-05, No Iterations 850
time step continuity errors : sum local = 1.24904e-08, global = 1.38656e-21, cumulative = 1.88377e-20
ExecutionTime = 489.6 s  ClockTime = 501 s

Time = 0.002656

Courant Number mean: 0.0458633 max: 0.493275
DILUPBiCGStab:  Solving for Ux, Initial residual = 0.015668, Final residual = 0.00150539, No Iterations 5
DILUPBiCGStab:  Solving for Uy, Initial residual = 0.0572559, Final residual = 0.00453538, No Iterations 5
DILUPBiCGStab:  Solving for Uz, Initial residual = 0.473094, Final residual = 0.0188066, No Iterations 5
DICPCG:  Solving for p, Initial residual = 0.896181, Final residual = 9.82706e-05, No Iterations 891
time step continuity errors : sum local = 1.31301e-08, global = 1.60989e-21, cumulative = 2.04476e-20
DICPCG:  Solving for p, Initial residual = 0.822655, Final residual = 9.89972e-05, No Iterations 889
time step continuity errors : sum local = 1.33362e-08, global = 1.36895e-21, cumulative = 2.18166e-20
ExecutionTime = 525.21 s  ClockTime = 536 s

Time = 0.002822

Courant Number mean: 0.0469437 max: 0.548886
DILUPBiCGStab:  Solving for Ux, Initial residual = 0.0151089, Final residual = 0.00139756, No Iterations 5
DILUPBiCGStab:  Solving for Uy, Initial residual = 0.0584076, Final residual = 0.00460584, No Iterations 5
DILUPBiCGStab:  Solving for Uz, Initial residual = 0.481783, Final residual = 0.0186326, No Iterations 5
DICPCG:  Solving for p, Initial residual = 0.910145, Final residual = 9.72657e-05, No Iterations 847
time step continuity errors : sum local = 1.30339e-08, global = 7.77641e-22, cumulative = 2.25942e-20
DICPCG:  Solving for p, Initial residual = 0.844919, Final residual = 9.97345e-05, No Iterations 845
time step continuity errors : sum local = 1.33056e-08, global = 1.83104e-21, cumulative = 2.44253e-20
ExecutionTime = 559.1 s  ClockTime = 570 s

Time = 0.002988

Courant Number mean: 0.0479099 max: 0.496555
DILUPBiCGStab:  Solving for Ux, Initial residual = 0.0151027, Final residual = 0.00139365, No Iterations 5
DILUPBiCGStab:  Solving for Uy, Initial residual = 0.0550533, Final residual = 0.00413969, No Iterations 5
DILUPBiCGStab:  Solving for Uz, Initial residual = 0.477918, Final residual = 0.0184273, No Iterations 5
DICPCG:  Solving for p, Initial residual = 0.899872, Final residual = 9.70217e-05, No Iterations 853
time step continuity errors : sum local = 1.35027e-08, global = 3.04395e-22, cumulative = 2.47297e-20
DICPCG:  Solving for p, Initial residual = 0.824962, Final residual = 9.90231e-05, No Iterations 852
time step continuity errors : sum local = 1.38798e-08, global = 1.75598e-21, cumulative = 2.64856e-20
ExecutionTime = 593.28 s  ClockTime = 604 s

Time = 0.003154

Courant Number mean: 0.0488945 max: 0.559261
DILUPBiCGStab:  Solving for Ux, Initial residual = 0.0147705, Final residual = 0.00131179, No Iterations 5
DILUPBiCGStab:  Solving for Uy, Initial residual = 0.056493, Final residual = 0.00426029, No Iterations 5
DILUPBiCGStab:  Solving for Uz, Initial residual = 0.489947, Final residual = 0.0189923, No Iterations 5
DICPCG:  Solving for p, Initial residual = 0.912182, Final residual = 9.99526e-05, No Iterations 872
time step continuity errors : sum local = 1.40222e-08, global = -1.25039e-21, cumulative = 2.52353e-20
DICPCG:  Solving for p, Initial residual = 0.844247, Final residual = 9.82387e-05, No Iterations 871
time step continuity errors : sum local = 1.37346e-08, global = 1.97788e-21, cumulative = 2.72131e-20
ExecutionTime = 628.47 s  ClockTime = 639 s

Time = 0.00332

Courant Number mean: 0.0497716 max: 0.500097
DILUPBiCGStab:  Solving for Ux, Initial residual = 0.0148815, Final residual = 0.00131987, No Iterations 5
DILUPBiCGStab:  Solving for Uy, Initial residual = 0.0537963, Final residual = 0.00383223, No Iterations 5
DILUPBiCGStab:  Solving for Uz, Initial residual = 0.484677, Final residual = 0.0179245, No Iterations 5
DICPCG:  Solving for p, Initial residual = 0.904605, Final residual = 9.83355e-05, No Iterations 886
time step continuity errors : sum local = 1.43019e-08, global = 1.33879e-21, cumulative = 2.85519e-20
DICPCG:  Solving for p, Initial residual = 0.82861, Final residual = 9.87599e-05, No Iterations 852
time step continuity errors : sum local = 1.44533e-08, global = -5.07213e-22, cumulative = 2.80447e-20
ExecutionTime = 663.3 s  ClockTime = 674 s

End

Finalising parallel run
