/*---------------------------------------------------------------------------*\
| =========                 |                                                 |
| \\      /  F ield         | OpenFOAM: The Open Source CFD Toolbox           |
|  \\    /   O peration     | Version:  v2106                                 |
|   \\  /    A nd           | Website:  www.openfoam.com                      |
|    \\/     M anipulation  |                                                 |
\*---------------------------------------------------------------------------*/
Build  : f815a12bba-20210902 OPENFOAM=2106
Arch   : "LSB;label=32;scalar=64"
Exec   : icoFoam -parallel -case /home/greole/data/code/micro_benchmarks/LidDrivenCavity3D/workspace/e47f4bef4f8e786bf029ec957dd87064/case
Date   : Mar 05 2023
Time   : 23:15:44
Host   : nla-gpu2.ianm.kit.edu
PID    : 2120672
I/O    : uncollated
Case   : /home/greole/data/code/micro_benchmarks/LidDrivenCavity3D/workspace/e47f4bef4f8e786bf029ec957dd87064/case
nProcs : 32
Hosts  :
(
    (nla-gpu2.ianm.kit.edu 32)
)
Pstream initialized with:
    floatTransfer      : 0
    nProcsSimpleSum    : 0
    commsType          : nonBlocking
    polling iterations : 0
trapFpe: Floating point exception trapping enabled (FOAM_SIGFPE).
fileModificationChecking : Monitoring run-time modified files using timeStampMaster (fileModificationSkew 5, maxFileModificationPolls 20)
allowSystemOperations : Allowing user-supplied system call operations

// * * * * * * * * * * * * * * * * * * * * * * * * * * * * * * * * * * * * * //
Create time

--> FOAM Warning : 
    From virtual void Foam::Time::readDict()
    in file db/Time/TimeIO.C at line 411
    Reading "/home/greole/data/code/micro_benchmarks/LidDrivenCavity3D/workspace/e47f4bef4f8e786bf029ec957dd87064/case/system/controlDict" at line 17 to 47
    Disabled binary format compression (inefficient/ineffective)
Create mesh for time = 0


PISO: Operating solver in PISO mode

Reading transportProperties

Reading field p

Reading field U

Reading/calculating face flux field phi


Starting time loop

Time = 0.000125

Courant Number mean: 8.02505e-18 max: 4.85723e-14
[INFO] MatrixAssemblyU: 578.828 [ms]
DILUPBiCGStab:  Solving for Ux, Initial residual = 1, Final residual = 0.0215184, No Iterations 5
DILUPBiCGStab:  Solving for Uy:  solution singularity
DILUPBiCGStab:  Solving for Uz:  solution singularity
linear solve U 1867.48 [ms]
[INFO] MomentumPredictor: 2086.56 [ms]
[INFO] MatrixAssemblyPI: 598.327 [ms]
[INFO] AdjustPhi: 59.635 [ms]
[INFO] ConstrainPressure: 0.01 [ms]
[INFO] MatrixAssemblyPII: 183.064 [ms]
nonePCG:  Solving for p, Initial residual = 1, Final residual = 0.00227316, No Iterations 3000
linear solve p 178765 [ms]
[INFO] SolveP: 178765 [ms]
time step continuity errors : sum local = 5.76641e-08, global = 2.00501e-22, cumulative = 2.00501e-22
[INFO] ContinuityError: 72.972 [ms]
[INFO] CorrectBoundary: 12.182 [ms]
[INFO] PISOStep: 179903 [ms]
[INFO] MatrixAssemblyPI: 579.198 [ms]
[INFO] AdjustPhi: 40.286 [ms]
[INFO] ConstrainPressure: 0.005 [ms]
[INFO] MatrixAssemblyPII: 172.472 [ms]
nonePCG:  Solving for p, Initial residual = 0.822127, Final residual = 0.00166776, No Iterations 3000
linear solve p 179012 [ms]
[INFO] SolveP: 179012 [ms]
time step continuity errors : sum local = 5.10925e-08, global = 3.58751e-22, cumulative = 5.59252e-22
[INFO] ContinuityError: 57.282 [ms]
[INFO] CorrectBoundary: 7.924 [ms]
[INFO] PISOStep: 180081 [ms]
[INFO] TimeStep: 362735 [ms]
ExecutionTime = 363.06 s  ClockTime = 365 s

Time = 0.00025

Courant Number mean: 0.0108529 max: 0.437705
[INFO] MatrixAssemblyU: 512.571 [ms]
DILUPBiCGStab:  Solving for Ux, Initial residual = 0.10817, Final residual = 0.0135461, No Iterations 5
DILUPBiCGStab:  Solving for Uy, Initial residual = 0.48468, Final residual = 0.0533725, No Iterations 5
DILUPBiCGStab:  Solving for Uz, Initial residual = 0.989218, Final residual = 0.122186, No Iterations 5
linear solve U 3701.02 [ms]
[INFO] MomentumPredictor: 3903.39 [ms]
[INFO] MatrixAssemblyPI: 570.723 [ms]
[INFO] AdjustPhi: 58.171 [ms]
[INFO] ConstrainPressure: 0.004 [ms]
[INFO] MatrixAssemblyPII: 169.351 [ms]
nonePCG:  Solving for p, Initial residual = 0.908432, Final residual = 0.00129419, No Iterations 3000
linear solve p 178779 [ms]
[INFO] SolveP: 178779 [ms]
time step continuity errors : sum local = 9.36095e-08, global = 1.95577e-22, cumulative = 7.54828e-22
[INFO] ContinuityError: 62.907 [ms]
[INFO] CorrectBoundary: 4.765 [ms]
[INFO] PISOStep: 179843 [ms]
[INFO] MatrixAssemblyPI: 544.833 [ms]
[INFO] AdjustPhi: 50.106 [ms]
[INFO] ConstrainPressure: 0.006 [ms]
[INFO] MatrixAssemblyPII: 158.62 [ms]
nonePCG:  Solving for p, Initial residual = 0.859637, Final residual = 0.00137575, No Iterations 3000
linear solve p 178623 [ms]
[INFO] SolveP: 178623 [ms]
time step continuity errors : sum local = 1.01338e-07, global = 6.65725e-22, cumulative = 1.42055e-21
[INFO] ContinuityError: 59.519 [ms]
[INFO] CorrectBoundary: 1.904 [ms]
[INFO] PISOStep: 179641 [ms]
[INFO] TimeStep: 363974 [ms]
ExecutionTime = 725.32 s  ClockTime = 729 s

Time = 0.000375

Courant Number mean: 0.0169396 max: 0.511592
[INFO] MatrixAssemblyU: 521.342 [ms]
DILUPBiCGStab:  Solving for Ux, Initial residual = 0.0537053, Final residual = 0.00548955, No Iterations 5
DILUPBiCGStab:  Solving for Uy, Initial residual = 0.262119, Final residual = 0.0267501, No Iterations 5
DILUPBiCGStab:  Solving for Uz, Initial residual = 0.877626, Final residual = 0.0963236, No Iterations 5
linear solve U 3674.65 [ms]
[INFO] MomentumPredictor: 3878.45 [ms]
[INFO] MatrixAssemblyPI: 572.325 [ms]
[INFO] AdjustPhi: 45.176 [ms]
[INFO] ConstrainPressure: 0.004 [ms]
[INFO] MatrixAssemblyPII: 165.709 [ms]
nonePCG:  Solving for p, Initial residual = 0.942249, Final residual = 9.81829e-05, No Iterations 1702
linear solve p 101485 [ms]
[INFO] SolveP: 101485 [ms]
time step continuity errors : sum local = 9.09035e-09, global = 5.79159e-22, cumulative = 1.99971e-21
[INFO] ContinuityError: 59.681 [ms]
[INFO] CorrectBoundary: 2.946 [ms]
[INFO] PISOStep: 102529 [ms]
[INFO] MatrixAssemblyPI: 549.911 [ms]
[INFO] AdjustPhi: 43.342 [ms]
[INFO] ConstrainPressure: 0.005 [ms]
[INFO] MatrixAssemblyPII: 159.479 [ms]
nonePCG:  Solving for p, Initial residual = 0.910365, Final residual = 9.95985e-05, No Iterations 1699
linear solve p 101377 [ms]
[INFO] SolveP: 101377 [ms]
time step continuity errors : sum local = 9.07468e-09, global = 7.05301e-22, cumulative = 2.70501e-21
[INFO] ContinuityError: 59.303 [ms]
[INFO] CorrectBoundary: 5.125 [ms]
[INFO] PISOStep: 102391 [ms]
[INFO] TimeStep: 209380 [ms]
ExecutionTime = 933.7 s  ClockTime = 938 s

Time = 0.0005

Courant Number mean: 0.0205483 max: 0.477601
[INFO] MatrixAssemblyU: 517.026 [ms]
DILUPBiCGStab:  Solving for Ux, Initial residual = 0.0416766, Final residual = 0.00508841, No Iterations 5
DILUPBiCGStab:  Solving for Uy, Initial residual = 0.214156, Final residual = 0.0244062, No Iterations 5
DILUPBiCGStab:  Solving for Uz, Initial residual = 0.787136, Final residual = 0.0640374, No Iterations 5
linear solve U 3685.27 [ms]
[INFO] MomentumPredictor: 3889.13 [ms]
[INFO] MatrixAssemblyPI: 574.216 [ms]
[INFO] AdjustPhi: 43.823 [ms]
[INFO] ConstrainPressure: 0.004 [ms]
[INFO] MatrixAssemblyPII: 161.032 [ms]
nonePCG:  Solving for p, Initial residual = 0.938681, Final residual = 9.95572e-05, No Iterations 1683
linear solve p 100264 [ms]
[INFO] SolveP: 100264 [ms]
time step continuity errors : sum local = 1.13656e-08, global = 3.05566e-22, cumulative = 3.01058e-21
[INFO] ContinuityError: 62.506 [ms]
[INFO] CorrectBoundary: 2.151 [ms]
[INFO] PISOStep: 101304 [ms]
[INFO] MatrixAssemblyPI: 560.56 [ms]
[INFO] AdjustPhi: 30.04 [ms]
[INFO] ConstrainPressure: 0.006 [ms]
[INFO] MatrixAssemblyPII: 165.896 [ms]
nonePCG:  Solving for p, Initial residual = 0.880933, Final residual = 9.99021e-05, No Iterations 1652
linear solve p 98407.9 [ms]
[INFO] SolveP: 98407.9 [ms]
time step continuity errors : sum local = 1.1312e-08, global = 6.5903e-22, cumulative = 3.66961e-21
[INFO] ContinuityError: 58.53 [ms]
[INFO] CorrectBoundary: 5.414 [ms]
[INFO] PISOStep: 99420.3 [ms]
[INFO] TimeStep: 205191 [ms]
ExecutionTime = 1137.91 s  ClockTime = 1143 s

Time = 0.000625

Courant Number mean: 0.0236174 max: 0.556186
[INFO] MatrixAssemblyU: 508.17 [ms]
DILUPBiCGStab:  Solving for Ux, Initial residual = 0.0375639, Final residual = 0.00460232, No Iterations 5
DILUPBiCGStab:  Solving for Uy, Initial residual = 0.185335, Final residual = 0.0204054, No Iterations 5
DILUPBiCGStab:  Solving for Uz, Initial residual = 0.756363, Final residual = 0.0548993, No Iterations 5
linear solve U 3687.44 [ms]
[INFO] MomentumPredictor: 3893.22 [ms]
[INFO] MatrixAssemblyPI: 564.118 [ms]
[INFO] AdjustPhi: 54.142 [ms]
[INFO] ConstrainPressure: 0.004 [ms]
[INFO] MatrixAssemblyPII: 160.96 [ms]
nonePCG:  Solving for p, Initial residual = 0.954583, Final residual = 0.000302892, No Iterations 3000
linear solve p 178736 [ms]
[INFO] SolveP: 178737 [ms]
time step continuity errors : sum local = 3.8144e-08, global = 5.53048e-22, cumulative = 4.22266e-21
[INFO] ContinuityError: 63.498 [ms]
[INFO] CorrectBoundary: 3.042 [ms]
[INFO] PISOStep: 179775 [ms]
[INFO] MatrixAssemblyPI: 558.765 [ms]
[INFO] AdjustPhi: 32.801 [ms]
[INFO] ConstrainPressure: 0.005 [ms]
[INFO] MatrixAssemblyPII: 160.841 [ms]
nonePCG:  Solving for p, Initial residual = 0.915255, Final residual = 0.000294606, No Iterations 3000
linear solve p 178761 [ms]
[INFO] SolveP: 178762 [ms]
time step continuity errors : sum local = 3.68792e-08, global = 2.17574e-22, cumulative = 4.44023e-21
[INFO] ContinuityError: 53.313 [ms]
[INFO] CorrectBoundary: 5.216 [ms]
[INFO] PISOStep: 179774 [ms]
[INFO] TimeStep: 364010 [ms]
ExecutionTime = 1500.2 s  ClockTime = 1507 s

Time = 0.00075

Courant Number mean: 0.0259525 max: 0.483354
[INFO] MatrixAssemblyU: 512.24 [ms]
DILUPBiCGStab:  Solving for Ux, Initial residual = 0.0353794, Final residual = 0.00439216, No Iterations 5
DILUPBiCGStab:  Solving for Uy, Initial residual = 0.171649, Final residual = 0.0174214, No Iterations 5
DILUPBiCGStab:  Solving for Uz, Initial residual = 0.704875, Final residual = 0.0503463, No Iterations 5
linear solve U 3687.9 [ms]
[INFO] MomentumPredictor: 3881.92 [ms]
[INFO] MatrixAssemblyPI: 548.349 [ms]
[INFO] AdjustPhi: 70.506 [ms]
[INFO] ConstrainPressure: 0.003 [ms]
[INFO] MatrixAssemblyPII: 155.528 [ms]
nonePCG:  Solving for p, Initial residual = 0.951753, Final residual = 9.90356e-05, No Iterations 1506
linear solve p 89834 [ms]
[INFO] SolveP: 89834.1 [ms]
time step continuity errors : sum local = 1.57582e-08, global = 2.29026e-22, cumulative = 4.66926e-21
[INFO] ContinuityError: 63.28 [ms]
[INFO] CorrectBoundary: 3.058 [ms]
[INFO] PISOStep: 90873.2 [ms]
[INFO] MatrixAssemblyPI: 550.205 [ms]
[INFO] AdjustPhi: 41.545 [ms]
[INFO] ConstrainPressure: 0.006 [ms]
[INFO] MatrixAssemblyPII: 163.195 [ms]
nonePCG:  Solving for p, Initial residual = 0.891715, Final residual = 9.80198e-05, No Iterations 1494
linear solve p 89068.8 [ms]
[INFO] SolveP: 89068.8 [ms]
time step continuity errors : sum local = 1.49547e-08, global = 6.82941e-22, cumulative = 5.3522e-21
[INFO] ContinuityError: 59.287 [ms]
[INFO] CorrectBoundary: 3.673 [ms]
[INFO] PISOStep: 90083.3 [ms]
[INFO] TimeStep: 185410 [ms]
ExecutionTime = 1684.73 s  ClockTime = 1693 s

Time = 0.000875

Courant Number mean: 0.0281462 max: 0.612479
[INFO] MatrixAssemblyU: 528.669 [ms]
DILUPBiCGStab:  Solving for Ux, Initial residual = 0.0350213, Final residual = 0.00415651, No Iterations 5
DILUPBiCGStab:  Solving for Uy, Initial residual = 0.177063, Final residual = 0.0166947, No Iterations 5
DILUPBiCGStab:  Solving for Uz, Initial residual = 0.699403, Final residual = 0.0452584, No Iterations 5
linear solve U 3683.46 [ms]
[INFO] MomentumPredictor: 3875.69 [ms]
[INFO] MatrixAssemblyPI: 572.98 [ms]
[INFO] AdjustPhi: 44.79 [ms]
[INFO] ConstrainPressure: 0.004 [ms]
[INFO] MatrixAssemblyPII: 161.358 [ms]
nonePCG:  Solving for p, Initial residual = 0.962442, Final residual = 0.000360126, No Iterations 3000
linear solve p 178975 [ms]
[INFO] SolveP: 178975 [ms]
time step continuity errors : sum local = 5.92533e-08, global = 1.16771e-21, cumulative = 6.51991e-21
[INFO] ContinuityError: 59.826 [ms]
[INFO] CorrectBoundary: 3.457 [ms]
[INFO] PISOStep: 180013 [ms]
[INFO] MatrixAssemblyPI: 553.265 [ms]
[INFO] AdjustPhi: 39.015 [ms]
[INFO] ConstrainPressure: 0.006 [ms]
[INFO] MatrixAssemblyPII: 161.005 [ms]
nonePCG:  Solving for p, Initial residual = 0.917519, Final residual = 0.000348002, No Iterations 3000
linear solve p 178841 [ms]
[INFO] SolveP: 178841 [ms]
time step continuity errors : sum local = 5.70559e-08, global = 3.44262e-22, cumulative = 6.86417e-21
[INFO] ContinuityError: 59.076 [ms]
[INFO] CorrectBoundary: 4.655 [ms]
[INFO] PISOStep: 179855 [ms]
[INFO] TimeStep: 364332 [ms]
ExecutionTime = 2047.36 s  ClockTime = 2057 s

Time = 0.001

Courant Number mean: 0.0298932 max: 0.491024
[INFO] MatrixAssemblyU: 518.325 [ms]
DILUPBiCGStab:  Solving for Ux, Initial residual = 0.0362386, Final residual = 0.00403734, No Iterations 5
DILUPBiCGStab:  Solving for Uy, Initial residual = 0.170452, Final residual = 0.0143482, No Iterations 5
DILUPBiCGStab:  Solving for Uz, Initial residual = 0.688017, Final residual = 0.0417254, No Iterations 5
linear solve U 3674.58 [ms]
[INFO] MomentumPredictor: 3877.87 [ms]
[INFO] MatrixAssemblyPI: 570.747 [ms]
[INFO] AdjustPhi: 46.511 [ms]
[INFO] ConstrainPressure: 0.004 [ms]
[INFO] MatrixAssemblyPII: 160.061 [ms]
nonePCG:  Solving for p, Initial residual = 0.960433, Final residual = 0.00040073, No Iterations 3000
linear solve p 178896 [ms]
[INFO] SolveP: 178896 [ms]
time step continuity errors : sum local = 7.61114e-08, global = 6.09012e-23, cumulative = 6.92507e-21
[INFO] ContinuityError: 61.619 [ms]
[INFO] CorrectBoundary: 2.531 [ms]
[INFO] PISOStep: 179934 [ms]
[INFO] MatrixAssemblyPI: 560.627 [ms]
[INFO] AdjustPhi: 30.132 [ms]
[INFO] ConstrainPressure: 0.004 [ms]
[INFO] MatrixAssemblyPII: 165.944 [ms]
nonePCG:  Solving for p, Initial residual = 0.89839, Final residual = 0.000379312, No Iterations 3000
linear solve p 178868 [ms]
[INFO] SolveP: 178869 [ms]
time step continuity errors : sum local = 7.30975e-08, global = 2.96454e-22, cumulative = 7.22152e-21
[INFO] ContinuityError: 58.469 [ms]
[INFO] CorrectBoundary: 4.642 [ms]
[INFO] PISOStep: 179881 [ms]
[INFO] TimeStep: 364272 [ms]
ExecutionTime = 2409.92 s  ClockTime = 2421 s

Time = 0.001125

Courant Number mean: 0.0316947 max: 0.69608
[INFO] MatrixAssemblyU: 509.449 [ms]
DILUPBiCGStab:  Solving for Ux, Initial residual = 0.0374671, Final residual = 0.0038164, No Iterations 5
DILUPBiCGStab:  Solving for Uy, Initial residual = 0.187364, Final residual = 0.0148044, No Iterations 5
DILUPBiCGStab:  Solving for Uz, Initial residual = 0.700306, Final residual = 0.0405383, No Iterations 5
linear solve U 3680.06 [ms]
[INFO] MomentumPredictor: 3884.86 [ms]
[INFO] MatrixAssemblyPI: 560.956 [ms]
[INFO] AdjustPhi: 57.244 [ms]
[INFO] ConstrainPressure: 0.003 [ms]
[INFO] MatrixAssemblyPII: 161.555 [ms]
nonePCG:  Solving for p, Initial residual = 0.968257, Final residual = 0.000362563, No Iterations 3000
linear solve p 178728 [ms]
[INFO] SolveP: 178728 [ms]
time step continuity errors : sum local = 7.90267e-08, global = 1.08911e-21, cumulative = 8.31064e-21
[INFO] ContinuityError: 62.71 [ms]
[INFO] CorrectBoundary: 3.079 [ms]
[INFO] PISOStep: 179766 [ms]
[INFO] MatrixAssemblyPI: 558.898 [ms]
[INFO] AdjustPhi: 33.649 [ms]
[INFO] ConstrainPressure: 0.004 [ms]
[INFO] MatrixAssemblyPII: 161.017 [ms]
nonePCG:  Solving for p, Initial residual = 0.918846, Final residual = 0.000348102, No Iterations 3000
linear solve p 178729 [ms]
[INFO] SolveP: 178729 [ms]
time step continuity errors : sum local = 7.5771e-08, global = 2.79949e-22, cumulative = 8.59058e-21
[INFO] ContinuityError: 53.025 [ms]
[INFO] CorrectBoundary: 4.927 [ms]
[INFO] PISOStep: 179743 [ms]
[INFO] TimeStep: 363963 [ms]
ExecutionTime = 2772.18 s  ClockTime = 2785 s

Time = 0.00125

Courant Number mean: 0.0331075 max: 0.507128
[INFO] MatrixAssemblyU: 511.822 [ms]
DILUPBiCGStab:  Solving for Ux, Initial residual = 0.0408474, Final residual = 0.00388205, No Iterations 5
DILUPBiCGStab:  Solving for Uy, Initial residual = 0.186106, Final residual = 0.0130566, No Iterations 5
DILUPBiCGStab:  Solving for Uz, Initial residual = 0.6995, Final residual = 0.0390472, No Iterations 5
linear solve U 3690.91 [ms]
[INFO] MomentumPredictor: 3884.9 [ms]
[INFO] MatrixAssemblyPI: 553.885 [ms]
[INFO] AdjustPhi: 64.618 [ms]
[INFO] ConstrainPressure: 0.005 [ms]
[INFO] MatrixAssemblyPII: 156.382 [ms]
nonePCG:  Solving for p, Initial residual = 0.967644, Final residual = 0.000349443, No Iterations 3000
linear solve p 178697 [ms]
[INFO] SolveP: 178697 [ms]
time step continuity errors : sum local = 8.86795e-08, global = 1.16464e-22, cumulative = 8.70705e-21
[INFO] ContinuityError: 62.608 [ms]
[INFO] CorrectBoundary: 3.106 [ms]
[INFO] PISOStep: 179736 [ms]
[INFO] MatrixAssemblyPI: 547.249 [ms]
[INFO] AdjustPhi: 45.165 [ms]
[INFO] ConstrainPressure: 0.003 [ms]
[INFO] MatrixAssemblyPII: 162.833 [ms]
nonePCG:  Solving for p, Initial residual = 0.904048, Final residual = 0.000344514, No Iterations 3000
linear solve p 178670 [ms]
[INFO] SolveP: 178670 [ms]
time step continuity errors : sum local = 8.85865e-08, global = 9.046e-22, cumulative = 9.61165e-21
[INFO] ContinuityError: 58.862 [ms]
[INFO] CorrectBoundary: 4.275 [ms]
[INFO] PISOStep: 179683 [ms]
[INFO] TimeStep: 363875 [ms]
ExecutionTime = 3134.37 s  ClockTime = 3149 s

Time = 0.001375

Courant Number mean: 0.0347058 max: 0.825649
[INFO] MatrixAssemblyU: 529.431 [ms]
DILUPBiCGStab:  Solving for Ux, Initial residual = 0.0436097, Final residual = 0.00371648, No Iterations 5
DILUPBiCGStab:  Solving for Uy, Initial residual = 0.21002, Final residual = 0.01415, No Iterations 5
DILUPBiCGStab:  Solving for Uz, Initial residual = 0.712769, Final residual = 0.0383691, No Iterations 5
linear solve U 3677.31 [ms]
[INFO] MomentumPredictor: 3869.01 [ms]
[INFO] MatrixAssemblyPI: 571.607 [ms]
[INFO] AdjustPhi: 46.028 [ms]
[INFO] ConstrainPressure: 0.004 [ms]
[INFO] MatrixAssemblyPII: 161.307 [ms]
nonePCG:  Solving for p, Initial residual = 0.973166, Final residual = 0.000353002, No Iterations 3000
linear solve p 178781 [ms]
[INFO] SolveP: 178781 [ms]
time step continuity errors : sum local = 1.0398e-07, global = -2.79277e-22, cumulative = 9.33237e-21
[INFO] ContinuityError: 59.823 [ms]
[INFO] CorrectBoundary: 3.455 [ms]
[INFO] PISOStep: 179819 [ms]
[INFO] MatrixAssemblyPI: 553.425 [ms]
[INFO] AdjustPhi: 38.419 [ms]
[INFO] ConstrainPressure: 0.005 [ms]
[INFO] MatrixAssemblyPII: 160.885 [ms]
nonePCG:  Solving for p, Initial residual = 0.919628, Final residual = 0.000336645, No Iterations 3000
linear solve p 178895 [ms]
[INFO] SolveP: 178895 [ms]
time step continuity errors : sum local = 9.92199e-08, global = 2.77338e-22, cumulative = 9.60971e-21
[INFO] ContinuityError: 59.933 [ms]
[INFO] CorrectBoundary: 5.351 [ms]
[INFO] PISOStep: 179909 [ms]
[INFO] TimeStep: 364186 [ms]
ExecutionTime = 3496.84 s  ClockTime = 3513 s

Time = 0.0015

Courant Number mean: 0.0359049 max: 0.597688
[INFO] MatrixAssemblyU: 524.183 [ms]
DILUPBiCGStab:  Solving for Ux, Initial residual = 0.0490636, Final residual = 0.00392063, No Iterations 5
DILUPBiCGStab:  Solving for Uy, Initial residual = 0.214238, Final residual = 0.0129425, No Iterations 5
DILUPBiCGStab:  Solving for Uz, Initial residual = 0.716255, Final residual = 0.0378214, No Iterations 5
linear solve U 3672.26 [ms]
[INFO] MomentumPredictor: 3872.9 [ms]
[INFO] MatrixAssemblyPI: 570.987 [ms]
[INFO] AdjustPhi: 45.769 [ms]
[INFO] ConstrainPressure: 0.004 [ms]
[INFO] MatrixAssemblyPII: 161.15 [ms]
nonePCG:  Solving for p, Initial residual = 0.973421, Final residual = 0.000357122, No Iterations 3000
linear solve p 178682 [ms]
[INFO] SolveP: 178682 [ms]
time step continuity errors : sum local = 1.23369e-07, global = 2.55754e-22, cumulative = 9.86546e-21
[INFO] ContinuityError: 62.307 [ms]
[INFO] CorrectBoundary: 2.729 [ms]
[INFO] PISOStep: 179720 [ms]
[INFO] MatrixAssemblyPI: 560.608 [ms]
[INFO] AdjustPhi: 29.405 [ms]
[INFO] ConstrainPressure: 0.005 [ms]
[INFO] MatrixAssemblyPII: 165.962 [ms]
nonePCG:  Solving for p, Initial residual = 0.908841, Final residual = 0.000338876, No Iterations 3000
linear solve p 178687 [ms]
[INFO] SolveP: 178687 [ms]
time step continuity errors : sum local = 1.1847e-07, global = 6.18214e-22, cumulative = 1.04837e-20
[INFO] ContinuityError: 58.521 [ms]
[INFO] CorrectBoundary: 6.904 [ms]
[INFO] PISOStep: 179699 [ms]
[INFO] TimeStep: 363876 [ms]
ExecutionTime = 3859.01 s  ClockTime = 3877 s

Time = 0.001625

Courant Number mean: 0.0373995 max: 1.14794
[INFO] MatrixAssemblyU: 508.392 [ms]
DILUPBiCGStab:  Solving for Ux, Initial residual = 0.0537246, Final residual = 0.0038666, No Iterations 5
DILUPBiCGStab:  Solving for Uy, Initial residual = 0.24295, Final residual = 0.0143155, No Iterations 5
DILUPBiCGStab:  Solving for Uz, Initial residual = 0.728041, Final residual = 0.0377729, No Iterations 5
linear solve U 3684.27 [ms]
[INFO] MomentumPredictor: 3887.85 [ms]
[INFO] MatrixAssemblyPI: 559.42 [ms]
[INFO] AdjustPhi: 59.401 [ms]
[INFO] ConstrainPressure: 0.004 [ms]
[INFO] MatrixAssemblyPII: 160.368 [ms]
nonePCG:  Solving for p, Initial residual = 0.976948, Final residual = 0.000136263, No Iterations 3000
linear solve p 178769 [ms]
[INFO] SolveP: 178769 [ms]
time step continuity errors : sum local = 5.51707e-08, global = 1.24367e-21, cumulative = 1.17273e-20
[INFO] ContinuityError: 63.9 [ms]
[INFO] CorrectBoundary: 2.986 [ms]
[INFO] PISOStep: 179807 [ms]
[INFO] MatrixAssemblyPI: 560 [ms]
[INFO] AdjustPhi: 32.005 [ms]
[INFO] ConstrainPressure: 0.005 [ms]
[INFO] MatrixAssemblyPII: 160.781 [ms]
nonePCG:  Solving for p, Initial residual = 0.920476, Final residual = 0.000306949, No Iterations 3000
linear solve p 178736 [ms]
[INFO] SolveP: 178736 [ms]
time step continuity errors : sum local = 1.24571e-07, global = 4.39078e-22, cumulative = 1.21664e-20
[INFO] ContinuityError: 52.885 [ms]
[INFO] CorrectBoundary: 6.637 [ms]
[INFO] PISOStep: 179750 [ms]
[INFO] TimeStep: 364013 [ms]
ExecutionTime = 4221.34 s  ClockTime = 4241 s

Time = 0.00175

Courant Number mean: 0.0384613 max: 1.02116
[INFO] MatrixAssemblyU: 512.754 [ms]
DILUPBiCGStab:  Solving for Ux, Initial residual = 0.0616758, Final residual = 0.00416157, No Iterations 5
DILUPBiCGStab:  Solving for Uy, Initial residual = 0.253089, Final residual = 0.0136035, No Iterations 5
DILUPBiCGStab:  Solving for Uz, Initial residual = 0.730488, Final residual = 0.0365564, No Iterations 5
linear solve U 3695.26 [ms]
[INFO] MomentumPredictor: 3888.52 [ms]
[INFO] MatrixAssemblyPI: 560.591 [ms]
[INFO] AdjustPhi: 58.522 [ms]
[INFO] ConstrainPressure: 0.003 [ms]
[INFO] MatrixAssemblyPII: 156.445 [ms]
nonePCG:  Solving for p, Initial residual = 0.977612, Final residual = 0.000255028, No Iterations 3000
linear solve p 178755 [ms]
[INFO] SolveP: 178756 [ms]
time step continuity errors : sum local = 1.21499e-07, global = 1.33192e-21, cumulative = 1.34983e-20
[INFO] ContinuityError: 62.341 [ms]
[INFO] CorrectBoundary: 3.029 [ms]
[INFO] PISOStep: 179794 [ms]
[INFO] MatrixAssemblyPI: 547.139 [ms]
[INFO] AdjustPhi: 45.358 [ms]
[INFO] ConstrainPressure: 0.005 [ms]
[INFO] MatrixAssemblyPII: 163.241 [ms]
nonePCG:  Solving for p, Initial residual = 0.91279, Final residual = 0.000256181, No Iterations 3000
linear solve p 178813 [ms]
[INFO] SolveP: 178813 [ms]
time step continuity errors : sum local = 1.23385e-07, global = 7.92284e-23, cumulative = 1.35776e-20
[INFO] ContinuityError: 59.445 [ms]
[INFO] CorrectBoundary: 4.594 [ms]
[INFO] PISOStep: 179826 [ms]
[INFO] TimeStep: 364081 [ms]
ExecutionTime = 4583.75 s  ClockTime = 4605 s

Time = 0.001875

Courant Number mean: 0.0399251 max: 1.68266
[INFO] MatrixAssemblyU: 528.926 [ms]
DILUPBiCGStab:  Solving for Ux, Initial residual = 0.0686515, Final residual = 0.00425528, No Iterations 5
DILUPBiCGStab:  Solving for Uy, Initial residual = 0.285436, Final residual = 0.0150944, No Iterations 5
DILUPBiCGStab:  Solving for Uz, Initial residual = 0.73917, Final residual = 0.0366256, No Iterations 5
linear solve U 3676.95 [ms]
[INFO] MomentumPredictor: 3869.46 [ms]
[INFO] MatrixAssemblyPI: 571.403 [ms]
[INFO] AdjustPhi: 46.309 [ms]
[INFO] ConstrainPressure: 0.004 [ms]
[INFO] MatrixAssemblyPII: 162.355 [ms]
nonePCG:  Solving for p, Initial residual = 0.979713, Final residual = 0.000352378, No Iterations 3000
linear solve p 178874 [ms]
[INFO] SolveP: 178874 [ms]
time step continuity errors : sum local = 1.97926e-07, global = -2.71832e-22, cumulative = 1.33057e-20
[INFO] ContinuityError: 60.3 [ms]
[INFO] CorrectBoundary: 3.53 [ms]
[INFO] PISOStep: 179913 [ms]
[INFO] MatrixAssemblyPI: 553.535 [ms]
[INFO] AdjustPhi: 38.901 [ms]
[INFO] ConstrainPressure: 0.004 [ms]
[INFO] MatrixAssemblyPII: 160.383 [ms]
nonePCG:  Solving for p, Initial residual = 0.920757, Final residual = 0.000332537, No Iterations 3000
linear solve p 178914 [ms]
[INFO] SolveP: 178914 [ms]
time step continuity errors : sum local = 1.87509e-07, global = 2.9825e-22, cumulative = 1.3604e-20
[INFO] ContinuityError: 58.925 [ms]
[INFO] CorrectBoundary: 5.037 [ms]
[INFO] PISOStep: 179927 [ms]
[INFO] TimeStep: 364299 [ms]
ExecutionTime = 4946.36 s  ClockTime = 4970 s

Time = 0.002

Courant Number mean: 0.0409197 max: 1.71662
[INFO] MatrixAssemblyU: 522.035 [ms]
DILUPBiCGStab:  Solving for Ux, Initial residual = 0.0800749, Final residual = 0.00467823, No Iterations 5
DILUPBiCGStab:  Solving for Uy, Initial residual = 0.302072, Final residual = 0.0148672, No Iterations 5
DILUPBiCGStab:  Solving for Uz, Initial residual = 0.743222, Final residual = 0.0366129, No Iterations 5
linear solve U 3674.72 [ms]
[INFO] MomentumPredictor: 3875.16 [ms]
[INFO] MatrixAssemblyPI: 568.672 [ms]
[INFO] AdjustPhi: 48.278 [ms]
[INFO] ConstrainPressure: 0.004 [ms]
[INFO] MatrixAssemblyPII: 158.647 [ms]
nonePCG:  Solving for p, Initial residual = 0.980833, Final residual = 0.000328774, No Iterations 3000
linear solve p 178784 [ms]
[INFO] SolveP: 178784 [ms]
time step continuity errors : sum local = 2.18899e-07, global = 3.58924e-21, cumulative = 1.71932e-20
[INFO] ContinuityError: 62.228 [ms]
[INFO] CorrectBoundary: 2.834 [ms]
[INFO] PISOStep: 179823 [ms]
[INFO] MatrixAssemblyPI: 559.946 [ms]
[INFO] AdjustPhi: 30.328 [ms]
[INFO] ConstrainPressure: 0.004 [ms]
[INFO] MatrixAssemblyPII: 164.901 [ms]
nonePCG:  Solving for p, Initial residual = 0.915861, Final residual = 0.000316334, No Iterations 3000
linear solve p 178763 [ms]
[INFO] SolveP: 178763 [ms]
time step continuity errors : sum local = 2.1274e-07, global = 5.75925e-22, cumulative = 1.77691e-20
[INFO] ContinuityError: 58.169 [ms]
[INFO] CorrectBoundary: 5.554 [ms]
[INFO] PISOStep: 179775 [ms]
[INFO] TimeStep: 364056 [ms]
ExecutionTime = 5308.71 s  ClockTime = 5334 s

Time = 0.002125

Courant Number mean: 0.0424215 max: 2.54787
[INFO] MatrixAssemblyU: 507.69 [ms]
DILUPBiCGStab:  Solving for Ux, Initial residual = 0.090111, Final residual = 0.00495323, No Iterations 5
DILUPBiCGStab:  Solving for Uy, Initial residual = 0.337658, Final residual = 0.0165045, No Iterations 5
DILUPBiCGStab:  Solving for Uz, Initial residual = 0.748134, Final residual = 0.0364687, No Iterations 5
linear solve U 3684.03 [ms]
[INFO] MomentumPredictor: 3889.66 [ms]
[INFO] MatrixAssemblyPI: 560.92 [ms]
[INFO] AdjustPhi: 57.589 [ms]
[INFO] ConstrainPressure: 0.004 [ms]
[INFO] MatrixAssemblyPII: 159.312 [ms]
nonePCG:  Solving for p, Initial residual = 0.981898, Final residual = 0.000368904, No Iterations 3000
linear solve p 178808 [ms]
[INFO] SolveP: 178809 [ms]
time step continuity errors : sum local = 2.91873e-07, global = 5.47594e-22, cumulative = 1.83167e-20
[INFO] ContinuityError: 63.055 [ms]
[INFO] CorrectBoundary: 3.415 [ms]
[INFO] PISOStep: 179847 [ms]
[INFO] MatrixAssemblyPI: 557.862 [ms]
[INFO] AdjustPhi: 34.222 [ms]
[INFO] ConstrainPressure: 0.005 [ms]
[INFO] MatrixAssemblyPII: 160.911 [ms]
nonePCG:  Solving for p, Initial residual = 0.92085, Final residual = 0.000347342, No Iterations 3000
linear solve p 178696 [ms]
[INFO] SolveP: 178696 [ms]
time step continuity errors : sum local = 2.76259e-07, global = -9.40918e-24, cumulative = 1.83073e-20
[INFO] ContinuityError: 53.024 [ms]
[INFO] CorrectBoundary: 5.201 [ms]
[INFO] PISOStep: 179709 [ms]
[INFO] TimeStep: 364013 [ms]
ExecutionTime = 5671.03 s  ClockTime = 5698 s

Time = 0.00225

Courant Number mean: 0.0434289 max: 2.85636
[INFO] MatrixAssemblyU: 512.227 [ms]
DILUPBiCGStab:  Solving for Ux, Initial residual = 0.106466, Final residual = 0.00556009, No Iterations 5
DILUPBiCGStab:  Solving for Uy, Initial residual = 0.360412, Final residual = 0.0165998, No Iterations 5
DILUPBiCGStab:  Solving for Uz, Initial residual = 0.751028, Final residual = 0.0362446, No Iterations 5
linear solve U 3693.09 [ms]
[INFO] MomentumPredictor: 3886.45 [ms]
[INFO] MatrixAssemblyPI: 557.472 [ms]
[INFO] AdjustPhi: 61.985 [ms]
[INFO] ConstrainPressure: 0.003 [ms]
[INFO] MatrixAssemblyPII: 155.916 [ms]
nonePCG:  Solving for p, Initial residual = 0.983096, Final residual = 0.000365978, No Iterations 3000
linear solve p 178672 [ms]
[INFO] SolveP: 178673 [ms]
time step continuity errors : sum local = 3.45601e-07, global = 1.74742e-21, cumulative = 2.00548e-20
[INFO] ContinuityError: 62.037 [ms]
[INFO] CorrectBoundary: 3.851 [ms]
[INFO] PISOStep: 179712 [ms]
[INFO] MatrixAssemblyPI: 548.709 [ms]
[INFO] AdjustPhi: 43.291 [ms]
[INFO] ConstrainPressure: 0.004 [ms]
[INFO] MatrixAssemblyPII: 162.324 [ms]
nonePCG:  Solving for p, Initial residual = 0.91792, Final residual = 0.000345224, No Iterations 3000
linear solve p 178747 [ms]
[INFO] SolveP: 178748 [ms]
time step continuity errors : sum local = 3.29103e-07, global = 1.03822e-21, cumulative = 2.1093e-20
[INFO] ContinuityError: 59.344 [ms]
[INFO] CorrectBoundary: 5.022 [ms]
[INFO] PISOStep: 179761 [ms]
[INFO] TimeStep: 363931 [ms]
ExecutionTime = 6033.28 s  ClockTime = 6062 s

Time = 0.002375

Courant Number mean: 0.0450511 max: 3.95829
[INFO] MatrixAssemblyU: 528.449 [ms]
DILUPBiCGStab:  Solving for Ux, Initial residual = 0.120428, Final residual = 0.00604199, No Iterations 5
DILUPBiCGStab:  Solving for Uy, Initial residual = 0.397431, Final residual = 0.018365, No Iterations 5
DILUPBiCGStab:  Solving for Uz, Initial residual = 0.753927, Final residual = 0.0361722, No Iterations 5
linear solve U 3674.66 [ms]
[INFO] MomentumPredictor: 3868.25 [ms]
[INFO] MatrixAssemblyPI: 571.593 [ms]
[INFO] AdjustPhi: 45.972 [ms]
[INFO] ConstrainPressure: 0.003 [ms]
[INFO] MatrixAssemblyPII: 161.809 [ms]
nonePCG:  Solving for p, Initial residual = 0.983528, Final residual = 0.000374979, No Iterations 3000
linear solve p 178673 [ms]
[INFO] SolveP: 178673 [ms]
time step continuity errors : sum local = 4.24114e-07, global = 3.79056e-22, cumulative = 2.1472e-20
[INFO] ContinuityError: 59.604 [ms]
[INFO] CorrectBoundary: 3.802 [ms]
[INFO] PISOStep: 179711 [ms]
[INFO] MatrixAssemblyPI: 552.484 [ms]
[INFO] AdjustPhi: 39.644 [ms]
[INFO] ConstrainPressure: 0.004 [ms]
[INFO] MatrixAssemblyPII: 161.342 [ms]
nonePCG:  Solving for p, Initial residual = 0.921119, Final residual = 0.000353272, No Iterations 3000
linear solve p 178875 [ms]
[INFO] SolveP: 178875 [ms]
time step continuity errors : sum local = 4.02087e-07, global = 1.51705e-21, cumulative = 2.29891e-20
[INFO] ContinuityError: 59.012 [ms]
[INFO] CorrectBoundary: 4.619 [ms]
[INFO] PISOStep: 179887 [ms]
[INFO] TimeStep: 364055 [ms]
ExecutionTime = 6395.69 s  ClockTime = 6426 s

Time = 0.0025

Courant Number mean: 0.0461794 max: 4.70342
[INFO] MatrixAssemblyU: 522.832 [ms]
DILUPBiCGStab:  Solving for Ux, Initial residual = 0.143438, Final residual = 0.00691053, No Iterations 5
DILUPBiCGStab:  Solving for Uy, Initial residual = 0.424894, Final residual = 0.0187428, No Iterations 5
DILUPBiCGStab:  Solving for Uz, Initial residual = 0.755636, Final residual = 0.0358608, No Iterations 5
linear solve U 3674.8 [ms]
[INFO] MomentumPredictor: 3874.94 [ms]
[INFO] MatrixAssemblyPI: 571.277 [ms]
[INFO] AdjustPhi: 44.7 [ms]
[INFO] ConstrainPressure: 0.003 [ms]
[INFO] MatrixAssemblyPII: 160.03 [ms]
nonePCG:  Solving for p, Initial residual = 0.984398, Final residual = 0.000389535, No Iterations 3000
linear solve p 178771 [ms]
[INFO] SolveP: 178771 [ms]
time step continuity errors : sum local = 5.29207e-07, global = -3.82406e-21, cumulative = 1.9165e-20
[INFO] ContinuityError: 61.461 [ms]
[INFO] CorrectBoundary: 2.788 [ms]
[INFO] PISOStep: 179808 [ms]
[INFO] MatrixAssemblyPI: 560.752 [ms]
[INFO] AdjustPhi: 29.787 [ms]
[INFO] ConstrainPressure: 0.004 [ms]
[INFO] MatrixAssemblyPII: 165.375 [ms]
nonePCG:  Solving for p, Initial residual = 0.919286, Final residual = 0.000365558, No Iterations 3000
linear solve p 178819 [ms]
[INFO] SolveP: 178819 [ms]
time step continuity errors : sum local = 5.01228e-07, global = 5.01685e-22, cumulative = 1.96667e-20
[INFO] ContinuityError: 58.495 [ms]
[INFO] CorrectBoundary: 5.984 [ms]
[INFO] PISOStep: 179831 [ms]
[INFO] TimeStep: 364097 [ms]
ExecutionTime = 6758.11 s  ClockTime = 6790 s

End

Finalising parallel run
