/*---------------------------------------------------------------------------*\
| =========                 |                                                 |
| \\      /  F ield         | OpenFOAM: The Open Source CFD Toolbox           |
|  \\    /   O peration     | Version:  2306                                  |
|   \\  /    A nd           | Website:  www.openfoam.com                      |
|    \\/     M anipulation  |                                                 |
\*---------------------------------------------------------------------------*/
Build  : a6e826bd55-20230630 OPENFOAM=2306 version=v2306
Arch   : "LSB;label=32;scalar=64"
Exec   : simpleFoam -parallel -case /home/greole/data/code/exasim_project/micro_benchmarks/WindsorBody/workspace/a678877e1fc718eec2d57623620d7e6a/case
Date   : Aug 27 2023
Time   : 16:30:02
Host   : nla-gpu2.ianm.kit.edu
PID    : 3071430
I/O    : uncollated
Case   : /home/greole/data/code/exasim_project/micro_benchmarks/WindsorBody/workspace/a678877e1fc718eec2d57623620d7e6a/case
nProcs : 32
Hosts  :
(
    (nla-gpu2.ianm.kit.edu 32)
)
Pstream initialized with:
    floatTransfer      : false
    nProcsSimpleSum    : 0
    nonBlockingExchange: 0 (tuning: 0)
    exchange algorithm : -1
    commsType          : nonBlocking
    polling iterations : 0
trapFpe: Floating point exception trapping enabled (FOAM_SIGFPE).
fileModificationChecking : Monitoring run-time modified files using timeStampMaster (fileModificationSkew 5, maxFileModificationPolls 20)
allowSystemOperations : Allowing user-supplied system call operations

// * * * * * * * * * * * * * * * * * * * * * * * * * * * * * * * * * * * * * //
Create time

--> FOAM Warning : 
    From void* Foam::dlLibraryTable::openLibrary(const Foam::fileName&, bool)
    in file db/dynamicLibrary/dlLibraryTable/dlLibraryTable.C at line 188
    Could not load "libpetscFoam.so"
libpetscFoam.so: cannot open shared object file: No such file or directory
Create mesh for time = 0


SIMPLE: convergence criteria
    field p	 tolerance 1e-08
    field U	 tolerance 1e-08
    field k	 tolerance 1e-08
    field omega	 tolerance 1e-08
    field nuTilda	 tolerance 1e-08

Reading field p

Reading field U

Reading/calculating face flux field phi

Selecting incompressible transport model Newtonian
Selecting turbulence model type RAS
Selecting RAS turbulence model SpalartAllmaras
Selecting patchDistMethod meshWave
ft2 term: inactive
RAS
{
    RASModel        SpalartAllmaras;
    turbulence      on;
    printCoeffs     on;
    sigmaNut        0.66666;
    kappa           0.41;
    Cb1             0.1355;
    Cb2             0.622;
    Cw2             0.3;
    Cw3             2;
    Cv1             7.1;
    Cs              0.3;
    ck              0.07000000000000001;
    ft2             false;
    Ct3             1.2;
    Ct4             0.5;
}

No MRF models present

Creating finite volume options from "system/fvOptions"

Selecting finite volume options type velocityDampingConstraint
    Source: velocityDamping
    - selecting all cells
    - selected 25228544 cell(s) with volume 111.3033220642923

Starting time loop

--> FOAM Warning : 
    From bool Foam::functionObjectList::read()
    in file db/functionObjects/functionObjectList/functionObjectList.C at line 1035
    Reading "system/controlDict" at line 2 to 41
    Entry 'lref' is not a dictionary
--> FOAM Warning : 
    From bool Foam::functionObjectList::read()
    in file db/functionObjects/functionObjectList/functionObjectList.C at line 1035
    Reading "system/controlDict" at line 2 to 41
    Entry 'Aref' is not a dictionary
--> FOAM Warning : 
    From bool Foam::functionObjectList::read()
    in file db/functionObjects/functionObjectList/functionObjectList.C at line 1035
    Reading "system/controlDict" at line 2 to 41
    Entry 'yawAngle' is not a dictionary
--> FOAM Warning : 
    From bool Foam::functionObjectList::read()
    in file db/functionObjects/functionObjectList/functionObjectList.C at line 1035
    Reading "system/controlDict" at line 2 to 41
    Entry 'lDomain' is not a dictionary
--> FOAM Warning : 
    From bool Foam::functionObjectList::read()
    in file db/functionObjects/functionObjectList/functionObjectList.C at line 1035
    Reading "system/controlDict" at line 2 to 41
    Entry 'bDomain' is not a dictionary
--> FOAM Warning : 
    From bool Foam::functionObjectList::read()
    in file db/functionObjects/functionObjectList/functionObjectList.C at line 1035
    Reading "system/controlDict" at line 2 to 41
    Entry 'hDomain' is not a dictionary
--> FOAM Warning : 
    From bool Foam::functionObjectList::read()
    in file db/functionObjects/functionObjectList/functionObjectList.C at line 1035
    Reading "system/controlDict" at line 2 to 41
    Entry 'xCenter' is not a dictionary
--> FOAM Warning : 
    From bool Foam::functionObjectList::read()
    in file db/functionObjects/functionObjectList/functionObjectList.C at line 1035
    Reading "system/controlDict" at line 2 to 41
    Entry 'yCenter' is not a dictionary
--> FOAM Warning : 
    From bool Foam::functionObjectList::read()
    in file db/functionObjects/functionObjectList/functionObjectList.C at line 1035
    Reading "system/controlDict" at line 2 to 41
    Entry 'zCenter' is not a dictionary
--> FOAM Warning : 
    From bool Foam::functionObjectList::read()
    in file db/functionObjects/functionObjectList/functionObjectList.C at line 1035
    Reading "system/controlDict" at line 2 to 41
    Entry 'inletPatch' is not a dictionary
--> FOAM Warning : 
    From bool Foam::functionObjectList::read()
    in file db/functionObjects/functionObjectList/functionObjectList.C at line 1035
    Reading "system/controlDict" at line 2 to 41
    Entry 'outletPatch' is not a dictionary
--> FOAM Warning : 
    From bool Foam::functionObjectList::read()
    in file db/functionObjects/functionObjectList/functionObjectList.C at line 1035
    Reading "system/controlDict" at line 2 to 41
    Entry 'wallPatches' is not a dictionary
--> FOAM Warning : 
    From bool Foam::functionObjectList::read()
    in file db/functionObjects/functionObjectList/functionObjectList.C at line 1035
    Reading "system/controlDict" at line 2 to 41
    Entry 'forcesWallPatches' is not a dictionary
--> FOAM Warning : 
    From bool Foam::functionObjectList::read()
    in file db/functionObjects/functionObjectList/functionObjectList.C at line 1035
    Reading "system/controlDict" at line 2 to 41
    Entry 'symmPatches' is not a dictionary
--> FOAM Warning : 
    From bool Foam::functionObjectList::read()
    in file db/functionObjects/functionObjectList/functionObjectList.C at line 1035
    Reading "system/controlDict" at line 2 to 41
    Entry 'Uinf' is not a dictionary
--> FOAM Warning : 
    From bool Foam::functionObjectList::read()
    in file db/functionObjects/functionObjectList/functionObjectList.C at line 1035
    Reading "system/controlDict" at line 2 to 41
    Entry 'UinfMag' is not a dictionary
--> FOAM Warning : 
    From bool Foam::functionObjectList::read()
    in file db/functionObjects/functionObjectList/functionObjectList.C at line 1035
    Reading "system/controlDict" at line 2 to 41
    Entry 'nu' is not a dictionary
--> FOAM Warning : 
    From bool Foam::functionObjectList::read()
    in file db/functionObjects/functionObjectList/functionObjectList.C at line 1035
    Reading "system/controlDict" at line 2 to 41
    Entry 'pref' is not a dictionary
--> FOAM Warning : 
    From bool Foam::functionObjectList::read()
    in file db/functionObjects/functionObjectList/functionObjectList.C at line 1035
    Reading "system/controlDict" at line 2 to 41
    Entry 'viscRatio' is not a dictionary
--> FOAM Warning : 
    From bool Foam::functionObjectList::read()
    in file db/functionObjects/functionObjectList/functionObjectList.C at line 1035
    Reading "system/controlDict" at line 2 to 41
    Entry 'Tu' is not a dictionary
--> FOAM Warning : 
    From bool Foam::functionObjectList::read()
    in file db/functionObjects/functionObjectList/functionObjectList.C at line 1035
    Reading "system/controlDict" at line 2 to 41
    Entry 'LESturbModel' is not a dictionary
--> FOAM Warning : 
    From bool Foam::functionObjectList::read()
    in file db/functionObjects/functionObjectList/functionObjectList.C at line 1035
    Reading "system/controlDict" at line 2 to 41
    Entry 'RASturbModel' is not a dictionary
--> FOAM Warning : 
    From bool Foam::functionObjectList::read()
    in file db/functionObjects/functionObjectList/functionObjectList.C at line 1035
    Reading "system/controlDict" at line 2 to 41
    Entry 'deltaTurb' is not a dictionary
--> FOAM Warning : 
    From bool Foam::functionObjectList::read()
    in file db/functionObjects/functionObjectList/functionObjectList.C at line 1035
    Reading "system/controlDict" at line 2 to 41
    Entry 'dt' is not a dictionary
--> FOAM Warning : 
    From bool Foam::functionObjectList::read()
    in file db/functionObjects/functionObjectList/functionObjectList.C at line 1035
    Reading "system/controlDict" at line 2 to 41
    Entry 'tAvg' is not a dictionary
--> FOAM Warning : 
    From bool Foam::functionObjectList::read()
    in file db/functionObjects/functionObjectList/functionObjectList.C at line 1035
    Reading "system/controlDict" at line 2 to 41
    Entry 'tEnd' is not a dictionary
--> FOAM Warning : 
    From bool Foam::functionObjectList::read()
    in file db/functionObjects/functionObjectList/functionObjectList.C at line 1035
    Reading "system/controlDict" at line 2 to 41
    Entry 'writeInterval_' is not a dictionary
--> FOAM Warning : 
    From bool Foam::functionObjectList::read()
    in file db/functionObjects/functionObjectList/functionObjectList.C at line 1035
    Reading "system/controlDict" at line 2 to 41
    Entry 'nCores' is not a dictionary
--> FOAM Warning : 
    From bool Foam::functionObjectList::read()
    in file db/functionObjects/functionObjectList/functionObjectList.C at line 1035
    Reading "system/controlDict" at line 2 to 41
    Entry 'interpScheme' is not a dictionary
--> FOAM Warning : 
    From bool Foam::functionObjectList::read()
    in file db/functionObjects/functionObjectList/functionObjectList.C at line 1035
    Reading "system/controlDict" at line 2 to 41
    Entry 'probeField' is not a dictionary
wallShearStress wallShearStress:
    processing wall patches: 
        Windsor_Body
        CFDWT_Floor
        Windsor_Pins
        Windsor_Base
        Windsor_Body_2
        CFDWT_Floor_2
        Windsor_Pins_2
        Windsor_Base_2
        Windsor_Body_3
        CFDWT_Floor_3
        Windsor_Pins_3
        Windsor_Base_3
        Windsor_Body_4
        CFDWT_Floor_4
        Windsor_Pins_4
        Windsor_Base_4

pressure calc_cp:
    Operating mode: staticCoeff
    Not including hydrostatic effects

forceCoeffs forceCoeffsAll:
    rho: rhoInf
    Freestream density (rhoInf) set to 1
    Not including porosity effects
    magUInf: 40
    lRef   : 0.6375
    Aref   : 0.1124
    rhoInf : 1
    Selecting all coefficients
    - Drag force: Cd
    - Drag force front: Cd(f)
    - Drag force rear: Cd(r)
    - Lift force: Cl
    - Lift force front: Cl(f)
    - Lift force rear: Cl(r)
    - Pitch moment: CmPitch
    - Roll moment: CmRoll
    - Yaw moment: CmYaw
    - Side force: Cs
    - Side force front: Cs(f)
    - Side force rear: Cs(r)


forceCoeffs dragCoeffBase:
    rho: rhoInf
    Freestream density (rhoInf) set to 1
    Not including porosity effects
    magUInf: 40
    lRef   : 0.6375
    Aref   : 0.1124
    rhoInf : 1
    Selecting coefficients:
    - Drag force: Cd


Time = 1

velocityDampingConstraint velocityDamping damped 0 (0%) of cells, with max limit 300
[INFO] MatrixAssemblyU: 1784.676 [ms]
[OGL LOG][lduLduBase.H:119] Initialising OGL
	OGL commit:  4647ee1+
	Branch: PersistentDeviceIdGuard 
	Build type: Release
	Ginkgo version: 1.5.0 ( develop)
	Ginkgo commit: 4292ffdee
	MPI is GPU aware: 1
	Forces host buffer based communication: 0
	CPU ranks per GPU: 1
	Matrix format: Coo
	End OGL_INFO
[OGL LOG][Proc: 0]: global_index_init: 9.784000000000001 [ms]
[OGL LOG][Proc: 0]Ux_local_cols: call_init: 0.034 [ms]
[OGL LOG][Proc: 0]Ux_local_rows: call_init: 0.003 [ms]
[OGL LOG][Proc: 0]Ux_local_ldu_map: call_init: 0.003 [ms]
[OGL LOG][Proc: 0]Ux_local_coeffs: call_init: 0.005 [ms]
[OGL LOG][Proc: 0]Ux_non_local_cols: call_init: 0.003 [ms]
[OGL LOG][Proc: 0]Ux_non_local_rows: call_init: 0.002 [ms]
[OGL LOG][Proc: 0]Ux_non_local_ldu_map: call_init: 0.002 [ms]
[OGL LOG][Proc: 0]Ux_non_local_coeffs: call_init: 0.003 [ms]
[OGL LOG][Proc: 0]Ux: init_local_sparsity_pattern: 244.154 [ms]
[OGL LOG][Proc: 0]Ux: init_non_local_sparsity_pattern: 19.784 [ms]
[OGL LOG][Proc: 0]Ux: update_local_matrix_data: 33.68 [ms]
[OGL LOG][Proc: 0]Ux: update_non_local_matrix_data: 0.161 [ms]
[OGL LOG][Proc: 0]device_partition: call_init: 10.729 [ms]
[OGL LOG][Proc: 0]Ux_matrix: call_init: 168.463 [ms]
[OGL LOG][Proc: 0]Ux_rhs: call_init: 15.596 [ms]
[OGL LOG][Proc: 0]Ux_solution: call_init: 5.009 [ms]
[OGL LOG][Preconditioner.H:121] Generate preconditioner BJ MaxBlockSize 1
[OGL LOG][Proc: 0]Ux: init_precond: 6.549 [ms]
[OGL LOG][StoppingCriterion.H:373] Creating stopping criterion with minIter 0 frequency 1
[OGL LOG][Proc: 0]Ux: generate_solver: 0.02 [ms]
[OGL LOG][Proc: 0]Ux: solve: 2058.805 [ms]
[OGL LOG][Proc: 0]Ux: copy_x_back: 4.749 [ms]
[OGL LOG][lduLduBase.H:336] 
Statistics:
	Time per iteration: 85783 [mu s]
	Time per residual norm calculation: 2627.000000 [mu s]
	Time per iteration and DOF: 3.400236 [ns]
	Retrieve results bandwidth 1.586000 [GByte/s]
[OGL LOG][Proc: 0]Ux: solve_multi_gpu: 2271.481 [ms]
BJhipGKOBiCGStab:  Solving for Ux, Initial residual = 0.9999999999998568, Final residual = 0.05875125087138124, No Iterations 24
[OGL LOG][lduLduBase.H:119] Initialising OGL
	OGL commit:  4647ee1+
	Branch: PersistentDeviceIdGuard 
	Build type: Release
	Ginkgo version: 1.5.0 ( develop)
	Ginkgo commit: 4292ffdee
	MPI is GPU aware: 1
	Forces host buffer based communication: 0
	CPU ranks per GPU: 1
	Matrix format: Coo
	End OGL_INFO
[OGL LOG][Proc: 0]: global_index_init: 2.792 [ms]
[OGL LOG][Proc: 0]Uy_local_cols: call_init: 0.006 [ms]
[OGL LOG][Proc: 0]Uy_local_rows: call_init: 0.003 [ms]
[OGL LOG][Proc: 0]Uy_local_ldu_map: call_init: 0.003 [ms]
[OGL LOG][Proc: 0]Uy_local_coeffs: call_init: 0.003 [ms]
[OGL LOG][Proc: 0]Uy_non_local_cols: call_init: 0.007 [ms]
[OGL LOG][Proc: 0]Uy_non_local_rows: call_init: 0.005 [ms]
[OGL LOG][Proc: 0]Uy_non_local_ldu_map: call_init: 0.005 [ms]
[OGL LOG][Proc: 0]Uy_non_local_coeffs: call_init: 0.005 [ms]
[OGL LOG][Proc: 0]Uy: init_local_sparsity_pattern: 253.03 [ms]
[OGL LOG][Proc: 0]Uy: init_non_local_sparsity_pattern: 34.769 [ms]
[OGL LOG][Proc: 0]Uy: update_local_matrix_data: 37.07 [ms]
[OGL LOG][Proc: 0]Uy: update_non_local_matrix_data: 0.206 [ms]
[OGL LOG][Proc: 0]Uy_matrix: call_init: 111.865 [ms]
[OGL LOG][Proc: 0]Uy_rhs: call_init: 25.983 [ms]
[OGL LOG][Proc: 0]Uy_solution: call_init: 4.115 [ms]
[OGL LOG][Preconditioner.H:121] Generate preconditioner BJ MaxBlockSize 1
[OGL LOG][Proc: 0]Uy: init_precond: 1.017 [ms]
[OGL LOG][StoppingCriterion.H:373] Creating stopping criterion with minIter 0 frequency 1
[OGL LOG][Proc: 0]Uy: generate_solver: 0.001 [ms]
[OGL LOG][Proc: 0]Uy: solve: 292.281 [ms]
[OGL LOG][Proc: 0]Uy: copy_x_back: 4.691 [ms]
[OGL LOG][lduLduBase.H:336] 
Statistics:
	Time per iteration: 5620 [mu s]
	Time per residual norm calculation: 392.000000 [mu s]
	Time per iteration and DOF: 0.222764 [ns]
	Retrieve results bandwidth 1.605000 [GByte/s]
[OGL LOG][Proc: 0]Uy: solve_multi_gpu: 441.804 [ms]
BJhipGKOBiCGStab:  Solving for Uy, Initial residual = 1.000000000000013, Final residual = 0.06026102754986091, No Iterations 52
[OGL LOG][lduLduBase.H:119] Initialising OGL
	OGL commit:  4647ee1+
	Branch: PersistentDeviceIdGuard 
	Build type: Release
	Ginkgo version: 1.5.0 ( develop)
	Ginkgo commit: 4292ffdee
	MPI is GPU aware: 1
	Forces host buffer based communication: 0
	CPU ranks per GPU: 1
	Matrix format: Coo
	End OGL_INFO
[OGL LOG][Proc: 0]: global_index_init: 0.371 [ms]
[OGL LOG][Proc: 0]Uz_local_cols: call_init: 0.007 [ms]
[OGL LOG][Proc: 0]Uz_local_rows: call_init: 0.003 [ms]
[OGL LOG][Proc: 0]Uz_local_ldu_map: call_init: 0.003 [ms]
[OGL LOG][Proc: 0]Uz_local_coeffs: call_init: 0.003 [ms]
[OGL LOG][Proc: 0]Uz_non_local_cols: call_init: 0.003 [ms]
[OGL LOG][Proc: 0]Uz_non_local_rows: call_init: 0.004 [ms]
[OGL LOG][Proc: 0]Uz_non_local_ldu_map: call_init: 0.003 [ms]
[OGL LOG][Proc: 0]Uz_non_local_coeffs: call_init: 0.003 [ms]
[OGL LOG][Proc: 0]Uz: init_local_sparsity_pattern: 252.018 [ms]
[OGL LOG][Proc: 0]Uz: init_non_local_sparsity_pattern: 36.002 [ms]
[OGL LOG][Proc: 0]Uz: update_local_matrix_data: 36.374 [ms]
[OGL LOG][Proc: 0]Uz: update_non_local_matrix_data: 0.136 [ms]
[OGL LOG][Proc: 0]Uz_matrix: call_init: 110.466 [ms]
[OGL LOG][Proc: 0]Uz_rhs: call_init: 25.206 [ms]
[OGL LOG][Proc: 0]Uz_solution: call_init: 2.26 [ms]
[OGL LOG][Preconditioner.H:121] Generate preconditioner BJ MaxBlockSize 1
[OGL LOG][Proc: 0]Uz: init_precond: 0.989 [ms]
[OGL LOG][StoppingCriterion.H:373] Creating stopping criterion with minIter 0 frequency 1
[OGL LOG][Proc: 0]Uz: generate_solver: 0.001 [ms]
[OGL LOG][Proc: 0]Uz: solve: 90.11799999999999 [ms]
[OGL LOG][Proc: 0]Uz: copy_x_back: 4.185 [ms]
[OGL LOG][lduLduBase.H:336] 
Statistics:
	Time per iteration: 90118 [mu s]
	Time per residual norm calculation: 472.000000 [mu s]
	Time per iteration and DOF: 3.572065 [ns]
	Retrieve results bandwidth 1.800000 [GByte/s]
[OGL LOG][Proc: 0]Uz: solve_multi_gpu: 234.634 [ms]
BJhipGKOBiCGStab:  Solving for Uz, Initial residual = 1.000000000000022, Final residual = 0.09952964467306087, No Iterations 1
[INFO] MomentumPredictor: 4406.516 [ms]
[INFO] MatrixAssemblyPI: 326.399 [ms]
[INFO] MatrixAssemblyPII: 156.046 [ms]
GAMG:  Solving for p, Initial residual = 1, Final residual = 0.007976000450882053, No Iterations 24
[INFO] SolveP: 4206.492 [ms]
time step continuity errors : sum local = 0.002933481607254807, global = 1.068130319609424e-05, cumulative = 1.068130319609424e-05
[INFO] postSolveP: 79.46299999999999 [ms]
[OGL LOG][lduLduBase.H:119] Initialising OGL
	OGL commit:  4647ee1+
	Branch: PersistentDeviceIdGuard 
	Build type: Release
	Ginkgo version: 1.5.0 ( develop)
	Ginkgo commit: 4292ffdee
	MPI is GPU aware: 1
	Forces host buffer based communication: 0
	CPU ranks per GPU: 1
	Matrix format: Coo
	End OGL_INFO
[OGL LOG][Proc: 0]: global_index_init: 8.185 [ms]
[OGL LOG][Proc: 0]nuTilda_local_cols: call_init: 0.011 [ms]
[OGL LOG][Proc: 0]nuTilda_local_rows: call_init: 0.004 [ms]
[OGL LOG][Proc: 0]nuTilda_local_ldu_map: call_init: 0.003 [ms]
[OGL LOG][Proc: 0]nuTilda_local_coeffs: call_init: 0.003 [ms]
[OGL LOG][Proc: 0]nuTilda_non_local_cols: call_init: 0.005 [ms]
[OGL LOG][Proc: 0]nuTilda_non_local_rows: call_init: 0.003 [ms]
[OGL LOG][Proc: 0]nuTilda_non_local_ldu_map: call_init: 0.004 [ms]
[OGL LOG][Proc: 0]nuTilda_non_local_coeffs: call_init: 0.003 [ms]
[OGL LOG][Proc: 0]nuTilda: init_local_sparsity_pattern: 228.986 [ms]
[OGL LOG][Proc: 0]nuTilda: init_non_local_sparsity_pattern: 30.349 [ms]
[OGL LOG][Proc: 0]nuTilda: update_local_matrix_data: 43.792 [ms]
[OGL LOG][Proc: 0]nuTilda: update_non_local_matrix_data: 0.227 [ms]
[OGL LOG][Proc: 0]nuTilda_matrix: call_init: 116.034 [ms]
[OGL LOG][Proc: 0]nuTilda_rhs: call_init: 21.308 [ms]
[OGL LOG][Proc: 0]nuTilda_solution: call_init: 4.278 [ms]
[OGL LOG][Preconditioner.H:121] Generate preconditioner BJ MaxBlockSize 1
[OGL LOG][Proc: 0]nuTilda: init_precond: 0.97 [ms]
[OGL LOG][StoppingCriterion.H:373] Creating stopping criterion with minIter 0 frequency 1
[OGL LOG][Proc: 0]nuTilda: generate_solver: 0.001 [ms]
[OGL LOG][Proc: 0]nuTilda: solve: 94.58 [ms]
[OGL LOG][Proc: 0]nuTilda: copy_x_back: 4.318000000000001 [ms]
[OGL LOG][lduLduBase.H:336] 
Statistics:
	Time per iteration: 47290 [mu s]
	Time per residual norm calculation: 329.000000 [mu s]
	Time per iteration and DOF: 1.874464 [ns]
	Retrieve results bandwidth 1.744000 [GByte/s]
[OGL LOG][Proc: 0]nuTilda: solve_multi_gpu: 246.047 [ms]
BJhipGKOBiCGStab:  Solving for nuTilda, Initial residual = 0.9999999999980782, Final residual = 0.0939610584278022, No Iterations 2
[INFO] TimeStep: 12472.743 [ms]
ExecutionTime = 34.92 s  ClockTime = 35 s

--> FOAM Warning : 
    From virtual bool Foam::functionObjects::fieldSelection::checkSelection()
    in file functionObjects/fieldSelections/fieldSelection/fieldSelection.C at line 166
    Field k not found
--> FOAM Warning : 
    From virtual bool Foam::functionObjects::fieldSelection::checkSelection()
    in file functionObjects/fieldSelections/fieldSelection/fieldSelection.C at line 166
    Field gammaInt not found
--> FOAM Warning : 
    From virtual bool Foam::functionObjects::fieldSelection::checkSelection()
    in file functionObjects/fieldSelections/fieldSelection/fieldSelection.C at line 166
    Field omega not found
--> FOAM Warning : 
    From virtual bool Foam::functionObjects::fieldSelection::checkSelection()
    in file functionObjects/fieldSelections/fieldSelection/fieldSelection.C at line 166
    Field ReThetat not found
--> FOAM Warning : 
    From virtual bool Foam::functionObjects::fieldSelection::checkSelection()
    in file functionObjects/fieldSelections/fieldSelection/fieldSelection.C at line 166
    Field epsilon not found
--> FOAM Warning : 
    From virtual bool Foam::functionObjects::solverFieldSelection::updateSelection()
    in file functionObjects/fieldSelections/solverFieldSelection/solverFieldSelection.C at line 85
    Valid solver fields are: 3(U nuTilda p)Time = 2

velocityDampingConstraint velocityDamping damped 0 (0%) of cells, with max limit 300
[INFO] MatrixAssemblyU: 1681.101 [ms]
[OGL LOG][Proc: 0]: global_index_init: 0.348 [ms]
[OGL LOG][Proc: 0]Ux_local_coeffs: call_update: 0.001 [ms]
[OGL LOG][Proc: 0]Ux_non_local_coeffs: call_update: 0 [ms]
[OGL LOG][Proc: 0]Ux: update_local_matrix_data: 40.825 [ms]
[OGL LOG][Proc: 0]Ux: update_non_local_matrix_data: 0.114 [ms]
[OGL LOG][Proc: 0]Ux_matrix: call_update: 7.708 [ms]
[OGL LOG][Proc: 0]Ux_rhs: call_update: 13.488 [ms]
[OGL LOG][Preconditioner.H:121] Generate preconditioner BJ MaxBlockSize 1
[OGL LOG][Proc: 0]Ux: init_precond: 0.931 [ms]
[OGL LOG][StoppingCriterion.H:373] Creating stopping criterion with minIter 28 frequency 1
[OGL LOG][Proc: 0]Ux: generate_solver: 0.001 [ms]
[OGL LOG][Proc: 0]Ux: solve: 124.902 [ms]
[OGL LOG][Proc: 0]Ux: copy_x_back: 4.672 [ms]
[OGL LOG][lduLduBase.H:336] 
Statistics:
	Time per iteration: 8921 [mu s]
	Time per residual norm calculation: 342.000000 [mu s]
	Time per iteration and DOF: 0.353607 [ns]
	Retrieve results bandwidth 1.612000 [GByte/s]
[OGL LOG][Proc: 0]Ux: solve_multi_gpu: 153.222 [ms]
BJhipGKOBiCGStab:  Solving for Ux, Initial residual = 0.6038401761377649, Final residual = 0.03872319910340723, No Iterations 14
[OGL LOG][Proc: 0]: global_index_init: 2.209 [ms]
[OGL LOG][Proc: 0]Uy_local_coeffs: call_update: 0 [ms]
[OGL LOG][Proc: 0]Uy_non_local_coeffs: call_update: 0 [ms]
[OGL LOG][Proc: 0]Uy: update_local_matrix_data: 40.414 [ms]
[OGL LOG][Proc: 0]Uy: update_non_local_matrix_data: 0.182 [ms]
[OGL LOG][Proc: 0]Uy_matrix: call_update: 8.737 [ms]
[OGL LOG][Proc: 0]Uy_rhs: call_update: 13.035 [ms]
[OGL LOG][Preconditioner.H:121] Generate preconditioner BJ MaxBlockSize 1
[OGL LOG][Proc: 0]Uy: init_precond: 0.9410000000000001 [ms]
[OGL LOG][StoppingCriterion.H:373] Creating stopping criterion with minIter 62 frequency 1
[OGL LOG][Proc: 0]Uy: generate_solver: 0.001 [ms]
[OGL LOG][Proc: 0]Uy: solve: 184.055 [ms]
[OGL LOG][Proc: 0]Uy: copy_x_back: 4.499 [ms]
[OGL LOG][lduLduBase.H:336] 
Statistics:
	Time per iteration: 5937 [mu s]
	Time per residual norm calculation: 342.000000 [mu s]
	Time per iteration and DOF: 0.235329 [ns]
	Retrieve results bandwidth 1.674000 [GByte/s]
[OGL LOG][Proc: 0]Uy: solve_multi_gpu: 212.916 [ms]
BJhipGKOBiCGStab:  Solving for Uy, Initial residual = 0.9976897852040771, Final residual = 0.001259562815697565, No Iterations 31
[OGL LOG][Proc: 0]: global_index_init: 0.519 [ms]
[OGL LOG][Proc: 0]Uz_local_coeffs: call_update: 0 [ms]
[OGL LOG][Proc: 0]Uz_non_local_coeffs: call_update: 0 [ms]
[OGL LOG][Proc: 0]Uz: update_local_matrix_data: 40.828 [ms]
[OGL LOG][Proc: 0]Uz: update_non_local_matrix_data: 0.165 [ms]
[OGL LOG][Proc: 0]Uz_matrix: call_update: 10.175 [ms]
[OGL LOG][Proc: 0]Uz_rhs: call_update: 9.716000000000001 [ms]
[OGL LOG][Preconditioner.H:121] Generate preconditioner BJ MaxBlockSize 1
[OGL LOG][Proc: 0]Uz: init_precond: 0.967 [ms]
[OGL LOG][StoppingCriterion.H:373] Creating stopping criterion with minIter 1 frequency 1
[OGL LOG][Proc: 0]Uz: generate_solver: 0.001 [ms]
[OGL LOG][Proc: 0]Uz: solve: 118.804 [ms]
[OGL LOG][Proc: 0]Uz: copy_x_back: 4.315 [ms]
[OGL LOG][lduLduBase.H:336] 
Statistics:
	Time per iteration: 10800 [mu s]
	Time per residual norm calculation: 391.000000 [mu s]
	Time per iteration and DOF: 0.428087 [ns]
	Retrieve results bandwidth 1.745000 [GByte/s]
[OGL LOG][Proc: 0]Uz: solve_multi_gpu: 145.338 [ms]
BJhipGKOBiCGStab:  Solving for Uz, Initial residual = 0.9999708043483332, Final residual = 0.07565563092694055, No Iterations 11
[INFO] MomentumPredictor: 785.841 [ms]
[INFO] MatrixAssemblyPI: 328.679 [ms]
[INFO] MatrixAssemblyPII: 155.838 [ms]
GAMG:  Solving for p, Initial residual = 0.2204496144943406, Final residual = 0.001990936108414908, No Iterations 12
[INFO] SolveP: 1888.285 [ms]
time step continuity errors : sum local = 0.04100669063554471, global = -0.0003761043591713259, cumulative = -0.0003654230559752316
[INFO] postSolveP: 79.328 [ms]
[OGL LOG][Proc: 0]: global_index_init: 5.169 [ms]
[OGL LOG][Proc: 0]nuTilda_local_coeffs: call_update: 0 [ms]
[OGL LOG][Proc: 0]nuTilda_non_local_coeffs: call_update: 0 [ms]
[OGL LOG][Proc: 0]nuTilda: update_local_matrix_data: 41.075 [ms]
[OGL LOG][Proc: 0]nuTilda: update_non_local_matrix_data: 0.145 [ms]
[OGL LOG][Proc: 0]nuTilda_matrix: call_update: 11.283 [ms]
[OGL LOG][Proc: 0]nuTilda_rhs: call_update: 13.391 [ms]
[OGL LOG][Preconditioner.H:121] Generate preconditioner BJ MaxBlockSize 1
[OGL LOG][Proc: 0]nuTilda: init_precond: 0.923 [ms]
[OGL LOG][StoppingCriterion.H:373] Creating stopping criterion with minIter 3 frequency 1
[OGL LOG][Proc: 0]nuTilda: generate_solver: 0.001 [ms]
[OGL LOG][Proc: 0]nuTilda: solve: 85.288 [ms]
[OGL LOG][Proc: 0]nuTilda: copy_x_back: 4.232 [ms]
[OGL LOG][lduLduBase.H:336] 
Statistics:
	Time per iteration: 42644 [mu s]
	Time per residual norm calculation: 394.000000 [mu s]
	Time per iteration and DOF: 1.690308 [ns]
	Retrieve results bandwidth 1.780000 [GByte/s]
[OGL LOG][Proc: 0]nuTilda: solve_multi_gpu: 116.795 [ms]
BJhipGKOBiCGStab:  Solving for nuTilda, Initial residual = 0.4032693553124695, Final residual = 0.00610188841880586, No Iterations 2
[INFO] TimeStep: 6044.113 [ms]
ExecutionTime = 42.27 s  ClockTime = 42 s

Time = 3

velocityDampingConstraint velocityDamping damped 3575 (0.01%) of cells, with max limit 300
[INFO] MatrixAssemblyU: 1693.352 [ms]
[OGL LOG][Proc: 0]: global_index_init: 0.553 [ms]
[OGL LOG][Proc: 0]Ux_local_coeffs: call_update: 0 [ms]
[OGL LOG][Proc: 0]Ux_non_local_coeffs: call_update: 0 [ms]
[OGL LOG][Proc: 0]Ux: update_local_matrix_data: 39.755 [ms]
[OGL LOG][Proc: 0]Ux: update_non_local_matrix_data: 0.113 [ms]
[OGL LOG][Proc: 0]Ux_matrix: call_update: 13.798 [ms]
[OGL LOG][Proc: 0]Ux_rhs: call_update: 9.995000000000001 [ms]
[OGL LOG][Preconditioner.H:121] Generate preconditioner BJ MaxBlockSize 1
[OGL LOG][Proc: 0]Ux: init_precond: 0.836 [ms]
[OGL LOG][StoppingCriterion.H:373] Creating stopping criterion with minIter 17 frequency 1
[OGL LOG][Proc: 0]Ux: generate_solver: 0.001 [ms]
[OGL LOG][Proc: 0]Ux: solve: 125.605 [ms]
[OGL LOG][Proc: 0]Ux: copy_x_back: 4.424 [ms]
[OGL LOG][lduLduBase.H:336] 
Statistics:
	Time per iteration: 8971 [mu s]
	Time per residual norm calculation: 388.000000 [mu s]
	Time per iteration and DOF: 0.355589 [ns]
	Retrieve results bandwidth 1.702000 [GByte/s]
[OGL LOG][Proc: 0]Ux: solve_multi_gpu: 156.442 [ms]
BJhipGKOBiCGStab:  Solving for Ux, Initial residual = 0.1301330297956546, Final residual = 0.006183621016836847, No Iterations 14
[OGL LOG][Proc: 0]: global_index_init: 0.53 [ms]
[OGL LOG][Proc: 0]Uy_local_coeffs: call_update: 0 [ms]
[OGL LOG][Proc: 0]Uy_non_local_coeffs: call_update: 0 [ms]
[OGL LOG][Proc: 0]Uy: update_local_matrix_data: 39.628 [ms]
[OGL LOG][Proc: 0]Uy: update_non_local_matrix_data: 0.134 [ms]
[OGL LOG][Proc: 0]Uy_matrix: call_update: 12.476 [ms]
[OGL LOG][Proc: 0]Uy_rhs: call_update: 11.052 [ms]
[OGL LOG][Preconditioner.H:121] Generate preconditioner BJ MaxBlockSize 1
[OGL LOG][Proc: 0]Uy: init_precond: 0.93 [ms]
[OGL LOG][StoppingCriterion.H:373] Creating stopping criterion with minIter 37 frequency 1
[OGL LOG][Proc: 0]Uy: generate_solver: 0.001 [ms]
[OGL LOG][Proc: 0]Uy: solve: 145.346 [ms]
[OGL LOG][Proc: 0]Uy: copy_x_back: 4.202 [ms]
[OGL LOG][lduLduBase.H:336] 
Statistics:
	Time per iteration: 7649 [mu s]
	Time per residual norm calculation: 401.000000 [mu s]
	Time per iteration and DOF: 0.303188 [ns]
	Retrieve results bandwidth 1.792000 [GByte/s]
[OGL LOG][Proc: 0]Uy: solve_multi_gpu: 175.804 [ms]
BJhipGKOBiCGStab:  Solving for Uy, Initial residual = 0.2862701561934821, Final residual = 0.005613196161663481, No Iterations 19
[OGL LOG][Proc: 0]: global_index_init: 0.27 [ms]
[OGL LOG][Proc: 0]Uz_local_coeffs: call_update: 0 [ms]
[OGL LOG][Proc: 0]Uz_non_local_coeffs: call_update: 0 [ms]
[OGL LOG][Proc: 0]Uz: update_local_matrix_data: 40.529 [ms]
[OGL LOG][Proc: 0]Uz: update_non_local_matrix_data: 0.123 [ms]
[OGL LOG][Proc: 0]Uz_matrix: call_update: 10.566 [ms]
[OGL LOG][Proc: 0]Uz_rhs: call_update: 10.593 [ms]
[OGL LOG][Preconditioner.H:121] Generate preconditioner BJ MaxBlockSize 1
[OGL LOG][Proc: 0]Uz: init_precond: 0.9500000000000001 [ms]
[OGL LOG][StoppingCriterion.H:373] Creating stopping criterion with minIter 13 frequency 1
[OGL LOG][Proc: 0]Uz: generate_solver: 0.001 [ms]
[OGL LOG][Proc: 0]Uz: solve: 119.194 [ms]
[OGL LOG][Proc: 0]Uz: copy_x_back: 4.318000000000001 [ms]
[OGL LOG][lduLduBase.H:336] 
Statistics:
	Time per iteration: 9932 [mu s]
	Time per residual norm calculation: 395.000000 [mu s]
	Time per iteration and DOF: 0.393681 [ns]
	Retrieve results bandwidth 1.744000 [GByte/s]
[OGL LOG][Proc: 0]Uz: solve_multi_gpu: 147.046 [ms]
BJhipGKOBiCGStab:  Solving for Uz, Initial residual = 0.2642958341700092, Final residual = 0.02136929257444435, No Iterations 12
[INFO] MomentumPredictor: 750.707 [ms]
[INFO] MatrixAssemblyPI: 327.397 [ms]
[INFO] MatrixAssemblyPII: 155.322 [ms]
GAMG:  Solving for p, Initial residual = 0.1859975519846757, Final residual = 0.001585651336450336, No Iterations 9
[INFO] SolveP: 1431.631 [ms]
time step continuity errors : sum local = 0.01975180750346355, global = -2.881601348491419e-05, cumulative = -0.0003942390694601458
[INFO] postSolveP: 79.25700000000001 [ms]
[OGL LOG][Proc: 0]: global_index_init: 9.182 [ms]
[OGL LOG][Proc: 0]nuTilda_local_coeffs: call_update: 0 [ms]
[OGL LOG][Proc: 0]nuTilda_non_local_coeffs: call_update: 0 [ms]
[OGL LOG][Proc: 0]nuTilda: update_local_matrix_data: 42.932 [ms]
[OGL LOG][Proc: 0]nuTilda: update_non_local_matrix_data: 0.113 [ms]
[OGL LOG][Proc: 0]nuTilda_matrix: call_update: 7.832 [ms]
[OGL LOG][Proc: 0]nuTilda_rhs: call_update: 14.239 [ms]
[OGL LOG][Preconditioner.H:121] Generate preconditioner BJ MaxBlockSize 1
[OGL LOG][Proc: 0]nuTilda: init_precond: 0.9410000000000001 [ms]
[OGL LOG][StoppingCriterion.H:373] Creating stopping criterion with minIter 2 frequency 1
[OGL LOG][Proc: 0]nuTilda: generate_solver: 0.001 [ms]
[OGL LOG][Proc: 0]nuTilda: solve: 85.124 [ms]
[OGL LOG][Proc: 0]nuTilda: copy_x_back: 4.515 [ms]
[OGL LOG][lduLduBase.H:336] 
Statistics:
	Time per iteration: 42562 [mu s]
	Time per residual norm calculation: 441.000000 [mu s]
	Time per iteration and DOF: 1.687057 [ns]
	Retrieve results bandwidth 1.668000 [GByte/s]
[OGL LOG][Proc: 0]nuTilda: solve_multi_gpu: 114.25 [ms]
BJhipGKOBiCGStab:  Solving for nuTilda, Initial residual = 0.1882444568315089, Final residual = 0.01414287584058598, No Iterations 2
[INFO] TimeStep: 5572.332 [ms]
ExecutionTime = 49.14 s  ClockTime = 49 s

Time = 4

velocityDampingConstraint velocityDamping damped 562 (0%) of cells, with max limit 300
[INFO] MatrixAssemblyU: 1724.626 [ms]
[OGL LOG][Proc: 0]: global_index_init: 2.188 [ms]
[OGL LOG][Proc: 0]Ux_local_coeffs: call_update: 0 [ms]
[OGL LOG][Proc: 0]Ux_non_local_coeffs: call_update: 0 [ms]
[OGL LOG][Proc: 0]Ux: update_local_matrix_data: 40.139 [ms]
[OGL LOG][Proc: 0]Ux: update_non_local_matrix_data: 0.115 [ms]
[OGL LOG][Proc: 0]Ux_matrix: call_update: 7.589 [ms]
[OGL LOG][Proc: 0]Ux_rhs: call_update: 11.123 [ms]
[OGL LOG][Preconditioner.H:121] Generate preconditioner BJ MaxBlockSize 1
[OGL LOG][Proc: 0]Ux: init_precond: 0.9380000000000001 [ms]
[OGL LOG][StoppingCriterion.H:373] Creating stopping criterion with minIter 16 frequency 1
[OGL LOG][Proc: 0]Ux: generate_solver: 0.001 [ms]
[OGL LOG][Proc: 0]Ux: solve: 120.637 [ms]
[OGL LOG][Proc: 0]Ux: copy_x_back: 4.453 [ms]
[OGL LOG][lduLduBase.H:336] 
Statistics:
	Time per iteration: 10967 [mu s]
	Time per residual norm calculation: 389.000000 [mu s]
	Time per iteration and DOF: 0.434706 [ns]
	Retrieve results bandwidth 1.691000 [GByte/s]
[OGL LOG][Proc: 0]Ux: solve_multi_gpu: 146.32 [ms]
BJhipGKOBiCGStab:  Solving for Ux, Initial residual = 0.1783617693552408, Final residual = 0.01745247611705644, No Iterations 11
[OGL LOG][Proc: 0]: global_index_init: 0.441 [ms]
[OGL LOG][Proc: 0]Uy_local_coeffs: call_update: 0 [ms]
[OGL LOG][Proc: 0]Uy_non_local_coeffs: call_update: 0 [ms]
[OGL LOG][Proc: 0]Uy: update_local_matrix_data: 39.661 [ms]
[OGL LOG][Proc: 0]Uy: update_non_local_matrix_data: 0.117 [ms]
[OGL LOG][Proc: 0]Uy_matrix: call_update: 8.532999999999999 [ms]
[OGL LOG][Proc: 0]Uy_rhs: call_update: 12.535 [ms]
[OGL LOG][Preconditioner.H:121] Generate preconditioner BJ MaxBlockSize 1
[OGL LOG][Proc: 0]Uy: init_precond: 0.924 [ms]
[OGL LOG][StoppingCriterion.H:373] Creating stopping criterion with minIter 22 frequency 1
[OGL LOG][Proc: 0]Uy: generate_solver: 0.001 [ms]
[OGL LOG][Proc: 0]Uy: solve: 122.067 [ms]
[OGL LOG][Proc: 0]Uy: copy_x_back: 4.225 [ms]
[OGL LOG][lduLduBase.H:336] 
Statistics:
	Time per iteration: 10172 [mu s]
	Time per residual norm calculation: 383.000000 [mu s]
	Time per iteration and DOF: 0.403194 [ns]
	Retrieve results bandwidth 1.783000 [GByte/s]
[OGL LOG][Proc: 0]Uy: solve_multi_gpu: 149.611 [ms]
BJhipGKOBiCGStab:  Solving for Uy, Initial residual = 0.1938541050281084, Final residual = 0.01573486810613527, No Iterations 12
[OGL LOG][Proc: 0]: global_index_init: 1.047 [ms]
[OGL LOG][Proc: 0]Uz_local_coeffs: call_update: 0 [ms]
[OGL LOG][Proc: 0]Uz_non_local_coeffs: call_update: 0 [ms]
[OGL LOG][Proc: 0]Uz: update_local_matrix_data: 41.709 [ms]
[OGL LOG][Proc: 0]Uz: update_non_local_matrix_data: 0.127 [ms]
[OGL LOG][Proc: 0]Uz_matrix: call_update: 10.59 [ms]
[OGL LOG][Proc: 0]Uz_rhs: call_update: 7.443000000000001 [ms]
[OGL LOG][Preconditioner.H:121] Generate preconditioner BJ MaxBlockSize 1
[OGL LOG][Proc: 0]Uz: init_precond: 0.909 [ms]
[OGL LOG][StoppingCriterion.H:373] Creating stopping criterion with minIter 14 frequency 1
[OGL LOG][Proc: 0]Uz: generate_solver: 0.001 [ms]
[OGL LOG][Proc: 0]Uz: solve: 116.322 [ms]
[OGL LOG][Proc: 0]Uz: copy_x_back: 4.369 [ms]
[OGL LOG][lduLduBase.H:336] 
Statistics:
	Time per iteration: 10574 [mu s]
	Time per residual norm calculation: 328.000000 [mu s]
	Time per iteration and DOF: 0.419128 [ns]
	Retrieve results bandwidth 1.724000 [GByte/s]
[OGL LOG][Proc: 0]Uz: solve_multi_gpu: 141.25 [ms]
BJhipGKOBiCGStab:  Solving for Uz, Initial residual = 0.2026538857615925, Final residual = 0.01939446803654319, No Iterations 11
[INFO] MomentumPredictor: 712.087 [ms]
[INFO] MatrixAssemblyPI: 327.597 [ms]
[INFO] MatrixAssemblyPII: 155.086 [ms]
GAMG:  Solving for p, Initial residual = 0.1164708741482715, Final residual = 0.001130213037662457, No Iterations 8
[INFO] SolveP: 1289.31 [ms]
time step continuity errors : sum local = 0.01577815568746554, global = -0.0003226393350264689, cumulative = -0.0007168784044866147
[INFO] postSolveP: 79.55200000000001 [ms]
[OGL LOG][Proc: 0]: global_index_init: 8.098000000000001 [ms]
[OGL LOG][Proc: 0]nuTilda_local_coeffs: call_update: 0 [ms]
[OGL LOG][Proc: 0]nuTilda_non_local_coeffs: call_update: 0 [ms]
[OGL LOG][Proc: 0]nuTilda: update_local_matrix_data: 40.39 [ms]
[OGL LOG][Proc: 0]nuTilda: update_non_local_matrix_data: 0.181 [ms]
[OGL LOG][Proc: 0]nuTilda_matrix: call_update: 14.859 [ms]
[OGL LOG][Proc: 0]nuTilda_rhs: call_update: 6.697 [ms]
[OGL LOG][Preconditioner.H:121] Generate preconditioner BJ MaxBlockSize 1
[OGL LOG][Proc: 0]nuTilda: init_precond: 0.9460000000000001 [ms]
[OGL LOG][StoppingCriterion.H:373] Creating stopping criterion with minIter 2 frequency 1
[OGL LOG][Proc: 0]nuTilda: generate_solver: 0.001 [ms]
[OGL LOG][Proc: 0]nuTilda: solve: 85.688 [ms]
[OGL LOG][Proc: 0]nuTilda: copy_x_back: 4.793 [ms]
[OGL LOG][lduLduBase.H:336] 
Statistics:
	Time per iteration: 42844 [mu s]
	Time per residual norm calculation: 407.000000 [mu s]
	Time per iteration and DOF: 1.698235 [ns]
	Retrieve results bandwidth 1.571000 [GByte/s]
[OGL LOG][Proc: 0]nuTilda: solve_multi_gpu: 114.592 [ms]
BJhipGKOBiCGStab:  Solving for nuTilda, Initial residual = 0.1123340593923525, Final residual = 0.008968019323516143, No Iterations 2
[INFO] TimeStep: 5418.434 [ms]
ExecutionTime = 55.87 s  ClockTime = 56 s

Time = 5

velocityDampingConstraint velocityDamping damped 194 (0%) of cells, with max limit 300
[INFO] MatrixAssemblyU: 1720.876 [ms]
[OGL LOG][Proc: 0]: global_index_init: 0.277 [ms]
[OGL LOG][Proc: 0]Ux_local_coeffs: call_update: 0 [ms]
[OGL LOG][Proc: 0]Ux_non_local_coeffs: call_update: 0 [ms]
[OGL LOG][Proc: 0]Ux: update_local_matrix_data: 40.294 [ms]
[OGL LOG][Proc: 0]Ux: update_non_local_matrix_data: 0.119 [ms]
[OGL LOG][Proc: 0]Ux_matrix: call_update: 8.456 [ms]
[OGL LOG][Proc: 0]Ux_rhs: call_update: 17.188 [ms]
[OGL LOG][Preconditioner.H:121] Generate preconditioner BJ MaxBlockSize 1
[OGL LOG][Proc: 0]Ux: init_precond: 0.9320000000000001 [ms]
[OGL LOG][StoppingCriterion.H:373] Creating stopping criterion with minIter 13 frequency 1
[OGL LOG][Proc: 0]Ux: generate_solver: 0.001 [ms]
[OGL LOG][Proc: 0]Ux: solve: 134.241 [ms]
[OGL LOG][Proc: 0]Ux: copy_x_back: 4.497 [ms]
[OGL LOG][lduLduBase.H:336] 
Statistics:
	Time per iteration: 9588 [mu s]
	Time per residual norm calculation: 388.000000 [mu s]
	Time per iteration and DOF: 0.380046 [ns]
	Retrieve results bandwidth 1.675000 [GByte/s]
[OGL LOG][Proc: 0]Ux: solve_multi_gpu: 166.943 [ms]
BJhipGKOBiCGStab:  Solving for Ux, Initial residual = 0.07247927941610763, Final residual = 0.002853370082659278, No Iterations 14
[OGL LOG][Proc: 0]: global_index_init: 0.224 [ms]
[OGL LOG][Proc: 0]Uy_local_coeffs: call_update: 0 [ms]
[OGL LOG][Proc: 0]Uy_non_local_coeffs: call_update: 0 [ms]
[OGL LOG][Proc: 0]Uy: update_local_matrix_data: 40.616 [ms]
[OGL LOG][Proc: 0]Uy: update_non_local_matrix_data: 0.116 [ms]
[OGL LOG][Proc: 0]Uy_matrix: call_update: 10.071 [ms]
[OGL LOG][Proc: 0]Uy_rhs: call_update: 15.067 [ms]
[OGL LOG][Preconditioner.H:121] Generate preconditioner BJ MaxBlockSize 1
[OGL LOG][Proc: 0]Uy: init_precond: 0.923 [ms]
[OGL LOG][StoppingCriterion.H:373] Creating stopping criterion with minIter 14 frequency 1
[OGL LOG][Proc: 0]Uy: generate_solver: 0.001 [ms]
[OGL LOG][Proc: 0]Uy: solve: 128.102 [ms]
[OGL LOG][Proc: 0]Uy: copy_x_back: 4.464 [ms]
[OGL LOG][lduLduBase.H:336] 
Statistics:
	Time per iteration: 11645 [mu s]
	Time per residual norm calculation: 335.000000 [mu s]
	Time per iteration and DOF: 0.461580 [ns]
	Retrieve results bandwidth 1.687000 [GByte/s]
[OGL LOG][Proc: 0]Uy: solve_multi_gpu: 160.096 [ms]
BJhipGKOBiCGStab:  Solving for Uy, Initial residual = 0.1388418503318138, Final residual = 0.01251555097958065, No Iterations 11
[OGL LOG][Proc: 0]: global_index_init: 0.396 [ms]
[OGL LOG][Proc: 0]Uz_local_coeffs: call_update: 0 [ms]
[OGL LOG][Proc: 0]Uz_non_local_coeffs: call_update: 0 [ms]
[OGL LOG][Proc: 0]Uz: update_local_matrix_data: 39.867 [ms]
[OGL LOG][Proc: 0]Uz: update_non_local_matrix_data: 0.105 [ms]
[OGL LOG][Proc: 0]Uz_matrix: call_update: 9.423999999999999 [ms]
[OGL LOG][Proc: 0]Uz_rhs: call_update: 10.119 [ms]
[OGL LOG][Preconditioner.H:121] Generate preconditioner BJ MaxBlockSize 1
[OGL LOG][Proc: 0]Uz: init_precond: 0.9530000000000001 [ms]
[OGL LOG][StoppingCriterion.H:373] Creating stopping criterion with minIter 13 frequency 1
[OGL LOG][Proc: 0]Uz: generate_solver: 0.001 [ms]
[OGL LOG][Proc: 0]Uz: solve: 115.958 [ms]
[OGL LOG][Proc: 0]Uz: copy_x_back: 4.212 [ms]
[OGL LOG][lduLduBase.H:336] 
Statistics:
	Time per iteration: 11595 [mu s]
	Time per residual norm calculation: 332.000000 [mu s]
	Time per iteration and DOF: 0.459598 [ns]
	Retrieve results bandwidth 1.788000 [GByte/s]
[OGL LOG][Proc: 0]Uz: solve_multi_gpu: 142.132 [ms]
BJhipGKOBiCGStab:  Solving for Uz, Initial residual = 0.1486649044523834, Final residual = 0.01367785192428841, No Iterations 10
[INFO] MomentumPredictor: 740.097 [ms]
[INFO] MatrixAssemblyPI: 328.353 [ms]
[INFO] MatrixAssemblyPII: 156.441 [ms]
GAMG:  Solving for p, Initial residual = 0.1074781601638262, Final residual = 0.0008950769655286688, No Iterations 9
[INFO] SolveP: 1424.702 [ms]
time step continuity errors : sum local = 0.009422472032306386, global = 3.063664135612385e-05, cumulative = -0.0006862417631304909
[INFO] postSolveP: 79.55200000000001 [ms]
[OGL LOG][Proc: 0]: global_index_init: 9.145 [ms]
[OGL LOG][Proc: 0]nuTilda_local_coeffs: call_update: 0 [ms]
[OGL LOG][Proc: 0]nuTilda_non_local_coeffs: call_update: 0 [ms]
[OGL LOG][Proc: 0]nuTilda: update_local_matrix_data: 45.158 [ms]
[OGL LOG][Proc: 0]nuTilda: update_non_local_matrix_data: 0.195 [ms]
[OGL LOG][Proc: 0]nuTilda_matrix: call_update: 7.558 [ms]
[OGL LOG][Proc: 0]nuTilda_rhs: call_update: 11.484 [ms]
[OGL LOG][Preconditioner.H:121] Generate preconditioner BJ MaxBlockSize 1
[OGL LOG][Proc: 0]nuTilda: init_precond: 0.962 [ms]
[OGL LOG][StoppingCriterion.H:373] Creating stopping criterion with minIter 2 frequency 1
[OGL LOG][Proc: 0]nuTilda: generate_solver: 0.001 [ms]
[OGL LOG][Proc: 0]nuTilda: solve: 97.273 [ms]
[OGL LOG][Proc: 0]nuTilda: copy_x_back: 4.573 [ms]
[OGL LOG][lduLduBase.H:336] 
Statistics:
	Time per iteration: 48636 [mu s]
	Time per residual norm calculation: 404.000000 [mu s]
	Time per iteration and DOF: 1.927816 [ns]
	Retrieve results bandwidth 1.647000 [GByte/s]
[OGL LOG][Proc: 0]nuTilda: solve_multi_gpu: 123.401 [ms]
BJhipGKOBiCGStab:  Solving for nuTilda, Initial residual = 0.06273307189470509, Final residual = 0.005279574959944698, No Iterations 2
bounding nuTilda, min: -2.69680363224715e-05 max: 0.001212235436095092 average: 8.868328323014526e-05
[INFO] TimeStep: 5653.474 [ms]
ExecutionTime = 62.84 s  ClockTime = 63 s

Time = 6

velocityDampingConstraint velocityDamping damped 0 (0%) of cells, with max limit 300
[INFO] MatrixAssemblyU: 1713.644 [ms]
[OGL LOG][Proc: 0]: global_index_init: 0.178 [ms]
[OGL LOG][Proc: 0]Ux_local_coeffs: call_update: 0 [ms]
[OGL LOG][Proc: 0]Ux_non_local_coeffs: call_update: 0 [ms]
[OGL LOG][Proc: 0]Ux: update_local_matrix_data: 40.66 [ms]
[OGL LOG][Proc: 0]Ux: update_non_local_matrix_data: 0.113 [ms]
[OGL LOG][Proc: 0]Ux_matrix: call_update: 10.141 [ms]
[OGL LOG][Proc: 0]Ux_rhs: call_update: 8.936999999999999 [ms]
[OGL LOG][Preconditioner.H:121] Generate preconditioner BJ MaxBlockSize 1
[OGL LOG][Proc: 0]Ux: init_precond: 0.923 [ms]
[OGL LOG][StoppingCriterion.H:373] Creating stopping criterion with minIter 16 frequency 1
[OGL LOG][Proc: 0]Ux: generate_solver: 0.001 [ms]
[OGL LOG][Proc: 0]Ux: solve: 120.845 [ms]
[OGL LOG][Proc: 0]Ux: copy_x_back: 4.469 [ms]
[OGL LOG][lduLduBase.H:336] 
Statistics:
	Time per iteration: 10070 [mu s]
	Time per residual norm calculation: 393.000000 [mu s]
	Time per iteration and DOF: 0.399151 [ns]
	Retrieve results bandwidth 1.685000 [GByte/s]
[OGL LOG][Proc: 0]Ux: solve_multi_gpu: 146.93 [ms]
BJhipGKOBiCGStab:  Solving for Ux, Initial residual = 0.0437922995057637, Final residual = 0.003086907945896012, No Iterations 12
[OGL LOG][Proc: 0]: global_index_init: 0.6920000000000001 [ms]
[OGL LOG][Proc: 0]Uy_local_coeffs: call_update: 0 [ms]
[OGL LOG][Proc: 0]Uy_non_local_coeffs: call_update: 0 [ms]
[OGL LOG][Proc: 0]Uy: update_local_matrix_data: 40.681 [ms]
[OGL LOG][Proc: 0]Uy: update_non_local_matrix_data: 0.186 [ms]
[OGL LOG][Proc: 0]Uy_matrix: call_update: 11.67 [ms]
[OGL LOG][Proc: 0]Uy_rhs: call_update: 6.878 [ms]
[OGL LOG][Preconditioner.H:121] Generate preconditioner BJ MaxBlockSize 1
[OGL LOG][Proc: 0]Uy: init_precond: 0.9430000000000001 [ms]
[OGL LOG][StoppingCriterion.H:373] Creating stopping criterion with minIter 13 frequency 1
[OGL LOG][Proc: 0]Uy: generate_solver: 0.001 [ms]
[OGL LOG][Proc: 0]Uy: solve: 123.514 [ms]
[OGL LOG][Proc: 0]Uy: copy_x_back: 4.075 [ms]
[OGL LOG][lduLduBase.H:336] 
Statistics:
	Time per iteration: 8822 [mu s]
	Time per residual norm calculation: 381.000000 [mu s]
	Time per iteration and DOF: 0.349683 [ns]
	Retrieve results bandwidth 1.848000 [GByte/s]
[OGL LOG][Proc: 0]Uy: solve_multi_gpu: 148.42 [ms]
BJhipGKOBiCGStab:  Solving for Uy, Initial residual = 0.1152005156768967, Final residual = 0.006126361080168125, No Iterations 14
[OGL LOG][Proc: 0]: global_index_init: 0.665 [ms]
[OGL LOG][Proc: 0]Uz_local_coeffs: call_update: 0 [ms]
[OGL LOG][Proc: 0]Uz_non_local_coeffs: call_update: 0 [ms]
[OGL LOG][Proc: 0]Uz: update_local_matrix_data: 40.615 [ms]
[OGL LOG][Proc: 0]Uz: update_non_local_matrix_data: 0.182 [ms]
[OGL LOG][Proc: 0]Uz_matrix: call_update: 11.978 [ms]
[OGL LOG][Proc: 0]Uz_rhs: call_update: 10.487 [ms]
[OGL LOG][Preconditioner.H:121] Generate preconditioner BJ MaxBlockSize 1
[OGL LOG][Proc: 0]Uz: init_precond: 0.9550000000000001 [ms]
[OGL LOG][StoppingCriterion.H:373] Creating stopping criterion with minIter 12 frequency 1
[OGL LOG][Proc: 0]Uz: generate_solver: 0.001 [ms]
[OGL LOG][Proc: 0]Uz: solve: 128.044 [ms]
[OGL LOG][Proc: 0]Uz: copy_x_back: 4.496 [ms]
[OGL LOG][lduLduBase.H:336] 
Statistics:
	Time per iteration: 11640 [mu s]
	Time per residual norm calculation: 328.000000 [mu s]
	Time per iteration and DOF: 0.461382 [ns]
	Retrieve results bandwidth 1.675000 [GByte/s]
[OGL LOG][Proc: 0]Uz: solve_multi_gpu: 157.564 [ms]
BJhipGKOBiCGStab:  Solving for Uz, Initial residual = 0.1187875700398392, Final residual = 0.01128042335667074, No Iterations 11
[INFO] MomentumPredictor: 725.928 [ms]
[INFO] MatrixAssemblyPI: 329.242 [ms]
[INFO] MatrixAssemblyPII: 156.126 [ms]
GAMG:  Solving for p, Initial residual = 0.1011749834291049, Final residual = 0.0009258268507769628, No Iterations 7
[INFO] SolveP: 1125.05 [ms]
time step continuity errors : sum local = 0.008595785412681229, global = 5.936873926551982e-05, cumulative = -0.000626873023864971
[INFO] postSolveP: 79.60899999999999 [ms]
[OGL LOG][Proc: 0]: global_index_init: 6.049 [ms]
[OGL LOG][Proc: 0]nuTilda_local_coeffs: call_update: 0 [ms]
[OGL LOG][Proc: 0]nuTilda_non_local_coeffs: call_update: 0 [ms]
[OGL LOG][Proc: 0]nuTilda: update_local_matrix_data: 42.113 [ms]
[OGL LOG][Proc: 0]nuTilda: update_non_local_matrix_data: 0.123 [ms]
[OGL LOG][Proc: 0]nuTilda_matrix: call_update: 14.197 [ms]
[OGL LOG][Proc: 0]nuTilda_rhs: call_update: 10.293 [ms]
[OGL LOG][Preconditioner.H:121] Generate preconditioner BJ MaxBlockSize 1
[OGL LOG][Proc: 0]nuTilda: init_precond: 0.97 [ms]
[OGL LOG][StoppingCriterion.H:373] Creating stopping criterion with minIter 2 frequency 1
[OGL LOG][Proc: 0]nuTilda: generate_solver: 0.001 [ms]
[OGL LOG][Proc: 0]nuTilda: solve: 89.193 [ms]
[OGL LOG][Proc: 0]nuTilda: copy_x_back: 4.399 [ms]
[OGL LOG][lduLduBase.H:336] 
Statistics:
	Time per iteration: 44596 [mu s]
	Time per residual norm calculation: 465.000000 [mu s]
	Time per iteration and DOF: 1.767680 [ns]
	Retrieve results bandwidth 1.712000 [GByte/s]
[OGL LOG][Proc: 0]nuTilda: solve_multi_gpu: 120.734 [ms]
BJhipGKOBiCGStab:  Solving for nuTilda, Initial residual = 0.05594699145472109, Final residual = 0.005588280223705553, No Iterations 2
bounding nuTilda, min: -5.406938028567278e-05 max: 0.001316387203984721 average: 9.050749297221485e-05
[INFO] TimeStep: 5325.117 [ms]
ExecutionTime = 69.48 s  ClockTime = 69 s

Time = 7

velocityDampingConstraint velocityDamping damped 3 (0%) of cells, with max limit 300
[INFO] MatrixAssemblyU: 1706.64 [ms]
[OGL LOG][Proc: 0]: global_index_init: 0.126 [ms]
[OGL LOG][Proc: 0]Ux_local_coeffs: call_update: 0 [ms]
[OGL LOG][Proc: 0]Ux_non_local_coeffs: call_update: 0 [ms]
[OGL LOG][Proc: 0]Ux: update_local_matrix_data: 40.82 [ms]
[OGL LOG][Proc: 0]Ux: update_non_local_matrix_data: 0.117 [ms]
[OGL LOG][Proc: 0]Ux_matrix: call_update: 7.976 [ms]
[OGL LOG][Proc: 0]Ux_rhs: call_update: 12.91 [ms]
[OGL LOG][Preconditioner.H:121] Generate preconditioner BJ MaxBlockSize 1
[OGL LOG][Proc: 0]Ux: init_precond: 0.9330000000000001 [ms]
[OGL LOG][StoppingCriterion.H:373] Creating stopping criterion with minIter 14 frequency 1
[OGL LOG][Proc: 0]Ux: generate_solver: 0.001 [ms]
[OGL LOG][Proc: 0]Ux: solve: 119.651 [ms]
[OGL LOG][Proc: 0]Ux: copy_x_back: 4.12 [ms]
[OGL LOG][lduLduBase.H:336] 
Statistics:
	Time per iteration: 11965 [mu s]
	Time per residual norm calculation: 326.000000 [mu s]
	Time per iteration and DOF: 0.474264 [ns]
	Retrieve results bandwidth 1.828000 [GByte/s]
[OGL LOG][Proc: 0]Ux: solve_multi_gpu: 147.339 [ms]
BJhipGKOBiCGStab:  Solving for Ux, Initial residual = 0.02842346228861369, Final residual = 0.002806951142993482, No Iterations 10
[OGL LOG][Proc: 0]: global_index_init: 0.895 [ms]
[OGL LOG][Proc: 0]Uy_local_coeffs: call_update: 0 [ms]
[OGL LOG][Proc: 0]Uy_non_local_coeffs: call_update: 0 [ms]
[OGL LOG][Proc: 0]Uy: update_local_matrix_data: 40.153 [ms]
[OGL LOG][Proc: 0]Uy: update_non_local_matrix_data: 0.138 [ms]
[OGL LOG][Proc: 0]Uy_matrix: call_update: 8.452999999999999 [ms]
[OGL LOG][Proc: 0]Uy_rhs: call_update: 12.964 [ms]
[OGL LOG][Preconditioner.H:121] Generate preconditioner BJ MaxBlockSize 1
[OGL LOG][Proc: 0]Uy: init_precond: 0.931 [ms]
[OGL LOG][StoppingCriterion.H:373] Creating stopping criterion with minIter 16 frequency 1
[OGL LOG][Proc: 0]Uy: generate_solver: 0.001 [ms]
[OGL LOG][Proc: 0]Uy: solve: 125.539 [ms]
[OGL LOG][Proc: 0]Uy: copy_x_back: 4.099 [ms]
[OGL LOG][lduLduBase.H:336] 
Statistics:
	Time per iteration: 9656 [mu s]
	Time per residual norm calculation: 381.000000 [mu s]
	Time per iteration and DOF: 0.382741 [ns]
	Retrieve results bandwidth 1.837000 [GByte/s]
[OGL LOG][Proc: 0]Uy: solve_multi_gpu: 153.55 [ms]
BJhipGKOBiCGStab:  Solving for Uy, Initial residual = 0.07868161496837804, Final residual = 0.005109970569656831, No Iterations 13
[OGL LOG][Proc: 0]: global_index_init: 0.264 [ms]
[OGL LOG][Proc: 0]Uz_local_coeffs: call_update: 0 [ms]
[OGL LOG][Proc: 0]Uz_non_local_coeffs: call_update: 0 [ms]
[OGL LOG][Proc: 0]Uz: update_local_matrix_data: 39.95 [ms]
[OGL LOG][Proc: 0]Uz: update_non_local_matrix_data: 0.117 [ms]
[OGL LOG][Proc: 0]Uz_matrix: call_update: 7.063 [ms]
[OGL LOG][Proc: 0]Uz_rhs: call_update: 13.016 [ms]
[OGL LOG][Preconditioner.H:121] Generate preconditioner BJ MaxBlockSize 1
[OGL LOG][Proc: 0]Uz: init_precond: 0.858 [ms]
[OGL LOG][StoppingCriterion.H:373] Creating stopping criterion with minIter 13 frequency 1
[OGL LOG][Proc: 0]Uz: generate_solver: 0.002 [ms]
[OGL LOG][Proc: 0]Uz: solve: 123.65 [ms]
[OGL LOG][Proc: 0]Uz: copy_x_back: 4.305 [ms]
[OGL LOG][lduLduBase.H:336] 
Statistics:
	Time per iteration: 10304 [mu s]
	Time per residual norm calculation: 402.000000 [mu s]
	Time per iteration and DOF: 0.408426 [ns]
	Retrieve results bandwidth 1.749000 [GByte/s]
[OGL LOG][Proc: 0]Uz: solve_multi_gpu: 150.267 [ms]
BJhipGKOBiCGStab:  Solving for Uz, Initial residual = 0.07762173823900008, Final residual = 0.005154681392408096, No Iterations 12
[INFO] MomentumPredictor: 722.8579999999999 [ms]
[INFO] MatrixAssemblyPI: 328.094 [ms]
[INFO] MatrixAssemblyPII: 154.613 [ms]
GAMG:  Solving for p, Initial residual = 0.08507647591178437, Final residual = 0.0007210909803353477, No Iterations 6
[INFO] SolveP: 992.455 [ms]
time step continuity errors : sum local = 0.006755951490882262, global = -3.134703008591927e-06, cumulative = -0.0006300077268735629
[INFO] postSolveP: 79.39100000000001 [ms]
[OGL LOG][Proc: 0]: global_index_init: 7.098 [ms]
[OGL LOG][Proc: 0]nuTilda_local_coeffs: call_update: 0 [ms]
[OGL LOG][Proc: 0]nuTilda_non_local_coeffs: call_update: 0 [ms]
[OGL LOG][Proc: 0]nuTilda: update_local_matrix_data: 42.608 [ms]
[OGL LOG][Proc: 0]nuTilda: update_non_local_matrix_data: 0.124 [ms]
[OGL LOG][Proc: 0]nuTilda_matrix: call_update: 10.672 [ms]
[OGL LOG][Proc: 0]nuTilda_rhs: call_update: 6.502 [ms]
[OGL LOG][Preconditioner.H:121] Generate preconditioner BJ MaxBlockSize 1
[OGL LOG][Proc: 0]nuTilda: init_precond: 1.515 [ms]
[OGL LOG][StoppingCriterion.H:373] Creating stopping criterion with minIter 2 frequency 1
[OGL LOG][Proc: 0]nuTilda: generate_solver: 0.001 [ms]
[OGL LOG][Proc: 0]nuTilda: solve: 78.64100000000001 [ms]
[OGL LOG][Proc: 0]nuTilda: copy_x_back: 4.781 [ms]
[OGL LOG][lduLduBase.H:336] 
Statistics:
	Time per iteration: 39320 [mu s]
	Time per residual norm calculation: 329.000000 [mu s]
	Time per iteration and DOF: 1.558552 [ns]
	Retrieve results bandwidth 1.575000 [GByte/s]
[OGL LOG][Proc: 0]nuTilda: solve_multi_gpu: 103.501 [ms]
BJhipGKOBiCGStab:  Solving for nuTilda, Initial residual = 0.04665969532255804, Final residual = 0.001988704159307614, No Iterations 2
[INFO] TimeStep: 5095.808 [ms]
ExecutionTime = 75.87 s  ClockTime = 76 s

Time = 8

velocityDampingConstraint velocityDamping damped 0 (0%) of cells, with max limit 300
[INFO] MatrixAssemblyU: 1694.004 [ms]
[OGL LOG][Proc: 0]: global_index_init: 0.63 [ms]
[OGL LOG][Proc: 0]Ux_local_coeffs: call_update: 0 [ms]
[OGL LOG][Proc: 0]Ux_non_local_coeffs: call_update: 0 [ms]
[OGL LOG][Proc: 0]Ux: update_local_matrix_data: 40.426 [ms]
[OGL LOG][Proc: 0]Ux: update_non_local_matrix_data: 0.223 [ms]
[OGL LOG][Proc: 0]Ux_matrix: call_update: 7.941 [ms]
[OGL LOG][Proc: 0]Ux_rhs: call_update: 7.343 [ms]
[OGL LOG][Preconditioner.H:121] Generate preconditioner BJ MaxBlockSize 1
[OGL LOG][Proc: 0]Ux: init_precond: 0.927 [ms]
[OGL LOG][StoppingCriterion.H:373] Creating stopping criterion with minIter 12 frequency 1
[OGL LOG][Proc: 0]Ux: generate_solver: 0.001 [ms]
[OGL LOG][Proc: 0]Ux: solve: 115.521 [ms]
[OGL LOG][Proc: 0]Ux: copy_x_back: 4.539 [ms]
[OGL LOG][lduLduBase.H:336] 
Statistics:
	Time per iteration: 11552 [mu s]
	Time per residual norm calculation: 324.000000 [mu s]
	Time per iteration and DOF: 0.457894 [ns]
	Retrieve results bandwidth 1.659000 [GByte/s]
[OGL LOG][Proc: 0]Ux: solve_multi_gpu: 137.856 [ms]
BJhipGKOBiCGStab:  Solving for Ux, Initial residual = 0.02058670986885677, Final residual = 0.001939744455306863, No Iterations 10
[OGL LOG][Proc: 0]: global_index_init: 0.321 [ms]
[OGL LOG][Proc: 0]Uy_local_coeffs: call_update: 0 [ms]
[OGL LOG][Proc: 0]Uy_non_local_coeffs: call_update: 0 [ms]
[OGL LOG][Proc: 0]Uy: update_local_matrix_data: 40.23 [ms]
[OGL LOG][Proc: 0]Uy: update_non_local_matrix_data: 0.124 [ms]
[OGL LOG][Proc: 0]Uy_matrix: call_update: 12.894 [ms]
[OGL LOG][Proc: 0]Uy_rhs: call_update: 2.882 [ms]
[OGL LOG][Preconditioner.H:121] Generate preconditioner BJ MaxBlockSize 1
[OGL LOG][Proc: 0]Uy: init_precond: 0.9510000000000001 [ms]
[OGL LOG][StoppingCriterion.H:373] Creating stopping criterion with minIter 15 frequency 1
[OGL LOG][Proc: 0]Uy: generate_solver: 0.001 [ms]
[OGL LOG][Proc: 0]Uy: solve: 108.327 [ms]
[OGL LOG][Proc: 0]Uy: copy_x_back: 4.131 [ms]
[OGL LOG][lduLduBase.H:336] 
Statistics:
	Time per iteration: 10832 [mu s]
	Time per residual norm calculation: 324.000000 [mu s]
	Time per iteration and DOF: 0.429355 [ns]
	Retrieve results bandwidth 1.823000 [GByte/s]
[OGL LOG][Proc: 0]Uy: solve_multi_gpu: 130.543 [ms]
BJhipGKOBiCGStab:  Solving for Uy, Initial residual = 0.06746122702605423, Final residual = 0.006503170166526265, No Iterations 10
[OGL LOG][Proc: 0]: global_index_init: 0.314 [ms]
[OGL LOG][Proc: 0]Uz_local_coeffs: call_update: 0 [ms]
[OGL LOG][Proc: 0]Uz_non_local_coeffs: call_update: 0 [ms]
[OGL LOG][Proc: 0]Uz: update_local_matrix_data: 39.95 [ms]
[OGL LOG][Proc: 0]Uz: update_non_local_matrix_data: 0.233 [ms]
[OGL LOG][Proc: 0]Uz_matrix: call_update: 11.463 [ms]
[OGL LOG][Proc: 0]Uz_rhs: call_update: 5.085 [ms]
[OGL LOG][Preconditioner.H:121] Generate preconditioner BJ MaxBlockSize 1
[OGL LOG][Proc: 0]Uz: init_precond: 0.9430000000000001 [ms]
[OGL LOG][StoppingCriterion.H:373] Creating stopping criterion with minIter 14 frequency 1
[OGL LOG][Proc: 0]Uz: generate_solver: 0.001 [ms]
[OGL LOG][Proc: 0]Uz: solve: 119.545 [ms]
[OGL LOG][Proc: 0]Uz: copy_x_back: 4.231 [ms]
[OGL LOG][lduLduBase.H:336] 
Statistics:
	Time per iteration: 9962 [mu s]
	Time per residual norm calculation: 327.000000 [mu s]
	Time per iteration and DOF: 0.394870 [ns]
	Retrieve results bandwidth 1.780000 [GByte/s]
[OGL LOG][Proc: 0]Uz: solve_multi_gpu: 142.622 [ms]
BJhipGKOBiCGStab:  Solving for Uz, Initial residual = 0.06184725100624031, Final residual = 0.005940142497752151, No Iterations 12
[INFO] MomentumPredictor: 683.443 [ms]
[INFO] MatrixAssemblyPI: 329.911 [ms]
[INFO] MatrixAssemblyPII: 153.775 [ms]
GAMG:  Solving for p, Initial residual = 0.07260334384136689, Final residual = 0.000472340275291809, No Iterations 6
[INFO] SolveP: 991.974 [ms]
time step continuity errors : sum local = 0.004478497713543255, global = -5.203101373260883e-05, cumulative = -0.0006820387406061717
[INFO] postSolveP: 79.35899999999999 [ms]
[OGL LOG][Proc: 0]: global_index_init: 9.32 [ms]
[OGL LOG][Proc: 0]nuTilda_local_coeffs: call_update: 0 [ms]
[OGL LOG][Proc: 0]nuTilda_non_local_coeffs: call_update: 0 [ms]
[OGL LOG][Proc: 0]nuTilda: update_local_matrix_data: 41.062 [ms]
[OGL LOG][Proc: 0]nuTilda: update_non_local_matrix_data: 0.183 [ms]
[OGL LOG][Proc: 0]nuTilda_matrix: call_update: 9.032999999999999 [ms]
[OGL LOG][Proc: 0]nuTilda_rhs: call_update: 10.641 [ms]
[OGL LOG][Preconditioner.H:121] Generate preconditioner BJ MaxBlockSize 1
[OGL LOG][Proc: 0]nuTilda: init_precond: 0.9520000000000001 [ms]
[OGL LOG][StoppingCriterion.H:373] Creating stopping criterion with minIter 3 frequency 1
[OGL LOG][Proc: 0]nuTilda: generate_solver: 0.001 [ms]
[OGL LOG][Proc: 0]nuTilda: solve: 87.869 [ms]
[OGL LOG][Proc: 0]nuTilda: copy_x_back: 4.325 [ms]
[OGL LOG][lduLduBase.H:336] 
Statistics:
	Time per iteration: 43934 [mu s]
	Time per residual norm calculation: 393.000000 [mu s]
	Time per iteration and DOF: 1.741440 [ns]
	Retrieve results bandwidth 1.741000 [GByte/s]
[OGL LOG][Proc: 0]nuTilda: solve_multi_gpu: 114.176 [ms]
BJhipGKOBiCGStab:  Solving for nuTilda, Initial residual = 0.05135606033074332, Final residual = 0.004064949500631981, No Iterations 2
[INFO] TimeStep: 5053.557 [ms]
ExecutionTime = 82.22 s  ClockTime = 82 s

Time = 9

velocityDampingConstraint velocityDamping damped 0 (0%) of cells, with max limit 300
[INFO] MatrixAssemblyU: 1687.313 [ms]
[OGL LOG][Proc: 0]: global_index_init: 0.59 [ms]
[OGL LOG][Proc: 0]Ux_local_coeffs: call_update: 0 [ms]
[OGL LOG][Proc: 0]Ux_non_local_coeffs: call_update: 0 [ms]
[OGL LOG][Proc: 0]Ux: update_local_matrix_data: 40.222 [ms]
[OGL LOG][Proc: 0]Ux: update_non_local_matrix_data: 0.127 [ms]
[OGL LOG][Proc: 0]Ux_matrix: call_update: 9.871 [ms]
[OGL LOG][Proc: 0]Ux_rhs: call_update: 6.005 [ms]
[OGL LOG][Preconditioner.H:121] Generate preconditioner BJ MaxBlockSize 1
[OGL LOG][Proc: 0]Ux: init_precond: 0.9560000000000001 [ms]
[OGL LOG][StoppingCriterion.H:373] Creating stopping criterion with minIter 12 frequency 1
[OGL LOG][Proc: 0]Ux: generate_solver: 0.001 [ms]
[OGL LOG][Proc: 0]Ux: solve: 137.89 [ms]
[OGL LOG][Proc: 0]Ux: copy_x_back: 4.177 [ms]
[OGL LOG][lduLduBase.H:336] 
Statistics:
	Time per iteration: 10606 [mu s]
	Time per residual norm calculation: 398.000000 [mu s]
	Time per iteration and DOF: 0.420397 [ns]
	Retrieve results bandwidth 1.803000 [GByte/s]
[OGL LOG][Proc: 0]Ux: solve_multi_gpu: 160.441 [ms]
BJhipGKOBiCGStab:  Solving for Ux, Initial residual = 0.01706196083284816, Final residual = 0.001142798108624093, No Iterations 13
[OGL LOG][Proc: 0]: global_index_init: 0.33 [ms]
[OGL LOG][Proc: 0]Uy_local_coeffs: call_update: 0 [ms]
[OGL LOG][Proc: 0]Uy_non_local_coeffs: call_update: 0 [ms]
[OGL LOG][Proc: 0]Uy: update_local_matrix_data: 39.612 [ms]
[OGL LOG][Proc: 0]Uy: update_non_local_matrix_data: 0.097 [ms]
[OGL LOG][Proc: 0]Uy_matrix: call_update: 10.416 [ms]
[OGL LOG][Proc: 0]Uy_rhs: call_update: 5.685 [ms]
[OGL LOG][Preconditioner.H:121] Generate preconditioner BJ MaxBlockSize 1
[OGL LOG][Proc: 0]Uy: init_precond: 0.8270000000000001 [ms]
[OGL LOG][StoppingCriterion.H:373] Creating stopping criterion with minIter 12 frequency 1
[OGL LOG][Proc: 0]Uy: generate_solver: 0.001 [ms]
[OGL LOG][Proc: 0]Uy: solve: 115.397 [ms]
[OGL LOG][Proc: 0]Uy: copy_x_back: 4.577 [ms]
[OGL LOG][lduLduBase.H:336] 
Statistics:
	Time per iteration: 11539 [mu s]
	Time per residual norm calculation: 328.000000 [mu s]
	Time per iteration and DOF: 0.457379 [ns]
	Retrieve results bandwidth 1.645000 [GByte/s]
[OGL LOG][Proc: 0]Uy: solve_multi_gpu: 138.278 [ms]
BJhipGKOBiCGStab:  Solving for Uy, Initial residual = 0.05057359951012189, Final residual = 0.004496092152027587, No Iterations 10
[OGL LOG][Proc: 0]: global_index_init: 0.259 [ms]
[OGL LOG][Proc: 0]Uz_local_coeffs: call_update: 0 [ms]
[OGL LOG][Proc: 0]Uz_non_local_coeffs: call_update: 0 [ms]
[OGL LOG][Proc: 0]Uz: update_local_matrix_data: 42.159 [ms]
[OGL LOG][Proc: 0]Uz: update_non_local_matrix_data: 0.124 [ms]
[OGL LOG][Proc: 0]Uz_matrix: call_update: 7.949 [ms]
[OGL LOG][Proc: 0]Uz_rhs: call_update: 7.45 [ms]
[OGL LOG][Preconditioner.H:121] Generate preconditioner BJ MaxBlockSize 1
[OGL LOG][Proc: 0]Uz: init_precond: 0.892 [ms]
[OGL LOG][StoppingCriterion.H:373] Creating stopping criterion with minIter 15 frequency 1
[OGL LOG][Proc: 0]Uz: generate_solver: 0.001 [ms]
[OGL LOG][Proc: 0]Uz: solve: 123.02 [ms]
[OGL LOG][Proc: 0]Uz: copy_x_back: 4.317 [ms]
[OGL LOG][lduLduBase.H:336] 
Statistics:
	Time per iteration: 11183 [mu s]
	Time per residual norm calculation: 328.000000 [mu s]
	Time per iteration and DOF: 0.443268 [ns]
	Retrieve results bandwidth 1.745000 [GByte/s]
[OGL LOG][Proc: 0]Uz: solve_multi_gpu: 144.984 [ms]
BJhipGKOBiCGStab:  Solving for Uz, Initial residual = 0.05138804260829108, Final residual = 0.004599353999953461, No Iterations 11
[INFO] MomentumPredictor: 716.9450000000001 [ms]
[INFO] MatrixAssemblyPI: 329.468 [ms]
[INFO] MatrixAssemblyPII: 153.205 [ms]
GAMG:  Solving for p, Initial residual = 0.07215434448397927, Final residual = 0.0006554532888753443, No Iterations 5
[INFO] SolveP: 829.4640000000001 [ms]
time step continuity errors : sum local = 0.006121888141994857, global = -3.041932748504355e-05, cumulative = -0.0007124580680912153
[INFO] postSolveP: 79.19199999999999 [ms]
[OGL LOG][Proc: 0]: global_index_init: 8.91 [ms]
[OGL LOG][Proc: 0]nuTilda_local_coeffs: call_update: 0 [ms]
[OGL LOG][Proc: 0]nuTilda_non_local_coeffs: call_update: 0 [ms]
[OGL LOG][Proc: 0]nuTilda: update_local_matrix_data: 41.925 [ms]
[OGL LOG][Proc: 0]nuTilda: update_non_local_matrix_data: 0.163 [ms]
[OGL LOG][Proc: 0]nuTilda_matrix: call_update: 10.62 [ms]
[OGL LOG][Proc: 0]nuTilda_rhs: call_update: 7.692 [ms]
[OGL LOG][Preconditioner.H:121] Generate preconditioner BJ MaxBlockSize 1
[OGL LOG][Proc: 0]nuTilda: init_precond: 0.9450000000000001 [ms]
[OGL LOG][StoppingCriterion.H:373] Creating stopping criterion with minIter 2 frequency 1
[OGL LOG][Proc: 0]nuTilda: generate_solver: 0.001 [ms]
[OGL LOG][Proc: 0]nuTilda: solve: 81.25 [ms]
[OGL LOG][Proc: 0]nuTilda: copy_x_back: 4.595 [ms]
[OGL LOG][lduLduBase.H:336] 
Statistics:
	Time per iteration: 40625 [mu s]
	Time per residual norm calculation: 384.000000 [mu s]
	Time per iteration and DOF: 1.610279 [ns]
	Retrieve results bandwidth 1.639000 [GByte/s]
[OGL LOG][Proc: 0]nuTilda: solve_multi_gpu: 106.692 [ms]
BJhipGKOBiCGStab:  Solving for nuTilda, Initial residual = 0.04139825567163634, Final residual = 0.003925203980625677, No Iterations 2
[INFO] TimeStep: 4906.601 [ms]
ExecutionTime = 88.40000000000001 s  ClockTime = 88 s

Time = 10

velocityDampingConstraint velocityDamping damped 0 (0%) of cells, with max limit 300
[INFO] MatrixAssemblyU: 1702.366 [ms]
[OGL LOG][Proc: 0]: global_index_init: 0.1 [ms]
[OGL LOG][Proc: 0]Ux_local_coeffs: call_update: 0 [ms]
[OGL LOG][Proc: 0]Ux_non_local_coeffs: call_update: 0 [ms]
[OGL LOG][Proc: 0]Ux: update_local_matrix_data: 40.5 [ms]
[OGL LOG][Proc: 0]Ux: update_non_local_matrix_data: 0.112 [ms]
[OGL LOG][Proc: 0]Ux_matrix: call_update: 10.647 [ms]
[OGL LOG][Proc: 0]Ux_rhs: call_update: 5.179 [ms]
[OGL LOG][Preconditioner.H:121] Generate preconditioner BJ MaxBlockSize 1
[OGL LOG][Proc: 0]Ux: init_precond: 0.93 [ms]
[OGL LOG][StoppingCriterion.H:373] Creating stopping criterion with minIter 15 frequency 1
[OGL LOG][Proc: 0]Ux: generate_solver: 0.03 [ms]
[OGL LOG][Proc: 0]Ux: solve: 112.707 [ms]
[OGL LOG][Proc: 0]Ux: copy_x_back: 4.056 [ms]
[OGL LOG][lduLduBase.H:336] 
Statistics:
	Time per iteration: 11270 [mu s]
	Time per residual norm calculation: 329.000000 [mu s]
	Time per iteration and DOF: 0.446716 [ns]
	Retrieve results bandwidth 1.857000 [GByte/s]
[OGL LOG][Proc: 0]Ux: solve_multi_gpu: 135.171 [ms]
BJhipGKOBiCGStab:  Solving for Ux, Initial residual = 0.01966293993189996, Final residual = 0.001932452837222881, No Iterations 10
[OGL LOG][Proc: 0]: global_index_init: 0.35 [ms]
[OGL LOG][Proc: 0]Uy_local_coeffs: call_update: 0 [ms]
[OGL LOG][Proc: 0]Uy_non_local_coeffs: call_update: 0 [ms]
[OGL LOG][Proc: 0]Uy: update_local_matrix_data: 40.282 [ms]
[OGL LOG][Proc: 0]Uy: update_non_local_matrix_data: 0.186 [ms]
[OGL LOG][Proc: 0]Uy_matrix: call_update: 13.883 [ms]
[OGL LOG][Proc: 0]Uy_rhs: call_update: 5.504 [ms]
[OGL LOG][Preconditioner.H:121] Generate preconditioner BJ MaxBlockSize 1
[OGL LOG][Proc: 0]Uy: init_precond: 0.9430000000000001 [ms]
[OGL LOG][StoppingCriterion.H:373] Creating stopping criterion with minIter 12 frequency 1
[OGL LOG][Proc: 0]Uy: generate_solver: 0.001 [ms]
[OGL LOG][Proc: 0]Uy: solve: 121.294 [ms]
[OGL LOG][Proc: 0]Uy: copy_x_back: 4.084000000000001 [ms]
[OGL LOG][lduLduBase.H:336] 
Statistics:
	Time per iteration: 11026 [mu s]
	Time per residual norm calculation: 386.000000 [mu s]
	Time per iteration and DOF: 0.437045 [ns]
	Retrieve results bandwidth 1.844000 [GByte/s]
[OGL LOG][Proc: 0]Uy: solve_multi_gpu: 147.151 [ms]
BJhipGKOBiCGStab:  Solving for Uy, Initial residual = 0.05031841873052948, Final residual = 0.004050624378138636, No Iterations 11
[OGL LOG][Proc: 0]: global_index_init: 0.308 [ms]
[OGL LOG][Proc: 0]Uz_local_coeffs: call_update: 0 [ms]
[OGL LOG][Proc: 0]Uz_non_local_coeffs: call_update: 0 [ms]
[OGL LOG][Proc: 0]Uz: update_local_matrix_data: 40.87 [ms]
[OGL LOG][Proc: 0]Uz: update_non_local_matrix_data: 0.174 [ms]
[OGL LOG][Proc: 0]Uz_matrix: call_update: 14.067 [ms]
[OGL LOG][Proc: 0]Uz_rhs: call_update: 4.441 [ms]
[OGL LOG][Preconditioner.H:121] Generate preconditioner BJ MaxBlockSize 1
[OGL LOG][Proc: 0]Uz: init_precond: 0.9430000000000001 [ms]
[OGL LOG][StoppingCriterion.H:373] Creating stopping criterion with minIter 13 frequency 1
[OGL LOG][Proc: 0]Uz: generate_solver: 0.001 [ms]
[OGL LOG][Proc: 0]Uz: solve: 117.831 [ms]
[OGL LOG][Proc: 0]Uz: copy_x_back: 4.103 [ms]
[OGL LOG][lduLduBase.H:336] 
Statistics:
	Time per iteration: 10711 [mu s]
	Time per residual norm calculation: 327.000000 [mu s]
	Time per iteration and DOF: 0.424559 [ns]
	Retrieve results bandwidth 1.836000 [GByte/s]
[OGL LOG][Proc: 0]Uz: solve_multi_gpu: 143.18 [ms]
BJhipGKOBiCGStab:  Solving for Uz, Initial residual = 0.04900261216891968, Final residual = 0.004850406156000213, No Iterations 11
[INFO] MomentumPredictor: 697.285 [ms]
[INFO] MatrixAssemblyPI: 329.657 [ms]
[INFO] MatrixAssemblyPII: 154.178 [ms]
GAMG:  Solving for p, Initial residual = 0.06323052256999918, Final residual = 0.0004435717353680631, No Iterations 6
[INFO] SolveP: 1004.953 [ms]
time step continuity errors : sum local = 0.004080222832305045, global = -2.291658760926396e-05, cumulative = -0.0007353746557004793
[INFO] postSolveP: 80.18600000000001 [ms]
[OGL LOG][Proc: 0]: global_index_init: 7.84 [ms]
[OGL LOG][Proc: 0]nuTilda_local_coeffs: call_update: 0 [ms]
[OGL LOG][Proc: 0]nuTilda_non_local_coeffs: call_update: 0 [ms]
[OGL LOG][Proc: 0]nuTilda: update_local_matrix_data: 41.346 [ms]
[OGL LOG][Proc: 0]nuTilda: update_non_local_matrix_data: 0.167 [ms]
[OGL LOG][Proc: 0]nuTilda_matrix: call_update: 10.811 [ms]
[OGL LOG][Proc: 0]nuTilda_rhs: call_update: 6.537 [ms]
[OGL LOG][Preconditioner.H:121] Generate preconditioner BJ MaxBlockSize 1
[OGL LOG][Proc: 0]nuTilda: init_precond: 0.9580000000000001 [ms]
[OGL LOG][StoppingCriterion.H:373] Creating stopping criterion with minIter 2 frequency 1
[OGL LOG][Proc: 0]nuTilda: generate_solver: 0.001 [ms]
[OGL LOG][Proc: 0]nuTilda: solve: 88.88500000000001 [ms]
[OGL LOG][Proc: 0]nuTilda: copy_x_back: 4.468 [ms]
[OGL LOG][lduLduBase.H:336] 
Statistics:
	Time per iteration: 44442 [mu s]
	Time per residual norm calculation: 334.000000 [mu s]
	Time per iteration and DOF: 1.761576 [ns]
	Retrieve results bandwidth 1.686000 [GByte/s]
[OGL LOG][Proc: 0]nuTilda: solve_multi_gpu: 113.071 [ms]
BJhipGKOBiCGStab:  Solving for nuTilda, Initial residual = 0.05064589355385381, Final residual = 0.002446319164764424, No Iterations 2
[INFO] TimeStep: 5085.299 [ms]
ExecutionTime = 94.78 s  ClockTime = 95 s

Time = 11

velocityDampingConstraint velocityDamping damped 0 (0%) of cells, with max limit 300
[INFO] MatrixAssemblyU: 1696.088 [ms]
[OGL LOG][Proc: 0]: global_index_init: 0.159 [ms]
[OGL LOG][Proc: 0]Ux_local_coeffs: call_update: 0 [ms]
[OGL LOG][Proc: 0]Ux_non_local_coeffs: call_update: 0 [ms]
[OGL LOG][Proc: 0]Ux: update_local_matrix_data: 40.636 [ms]
[OGL LOG][Proc: 0]Ux: update_non_local_matrix_data: 0.117 [ms]
[OGL LOG][Proc: 0]Ux_matrix: call_update: 11.676 [ms]
[OGL LOG][Proc: 0]Ux_rhs: call_update: 2.757 [ms]
[OGL LOG][Preconditioner.H:121] Generate preconditioner BJ MaxBlockSize 1
[OGL LOG][Proc: 0]Ux: init_precond: 0.9470000000000001 [ms]
[OGL LOG][StoppingCriterion.H:373] Creating stopping criterion with minIter 12 frequency 1
[OGL LOG][Proc: 0]Ux: generate_solver: 0.007 [ms]
[OGL LOG][Proc: 0]Ux: solve: 120.945 [ms]
[OGL LOG][Proc: 0]Ux: copy_x_back: 4.613 [ms]
[OGL LOG][lduLduBase.H:336] 
Statistics:
	Time per iteration: 10995 [mu s]
	Time per residual norm calculation: 391.000000 [mu s]
	Time per iteration and DOF: 0.435816 [ns]
	Retrieve results bandwidth 1.633000 [GByte/s]
[OGL LOG][Proc: 0]Ux: solve_multi_gpu: 142.687 [ms]
BJhipGKOBiCGStab:  Solving for Ux, Initial residual = 0.01409547825314551, Final residual = 0.001321851927924801, No Iterations 11
[OGL LOG][Proc: 0]: global_index_init: 0.337 [ms]
[OGL LOG][Proc: 0]Uy_local_coeffs: call_update: 0 [ms]
[OGL LOG][Proc: 0]Uy_non_local_coeffs: call_update: 0 [ms]
[OGL LOG][Proc: 0]Uy: update_local_matrix_data: 39.51 [ms]
[OGL LOG][Proc: 0]Uy: update_non_local_matrix_data: 0.116 [ms]
[OGL LOG][Proc: 0]Uy_matrix: call_update: 8.151 [ms]
[OGL LOG][Proc: 0]Uy_rhs: call_update: 8.191000000000001 [ms]
[OGL LOG][Preconditioner.H:121] Generate preconditioner BJ MaxBlockSize 1
[OGL LOG][Proc: 0]Uy: init_precond: 0.9480000000000001 [ms]
[OGL LOG][StoppingCriterion.H:373] Creating stopping criterion with minIter 13 frequency 1
[OGL LOG][Proc: 0]Uy: generate_solver: 0.003 [ms]
[OGL LOG][Proc: 0]Uy: solve: 118.868 [ms]
[OGL LOG][Proc: 0]Uy: copy_x_back: 4.242 [ms]
[OGL LOG][lduLduBase.H:336] 
Statistics:
	Time per iteration: 9143 [mu s]
	Time per residual norm calculation: 383.000000 [mu s]
	Time per iteration and DOF: 0.362407 [ns]
	Retrieve results bandwidth 1.775000 [GByte/s]
[OGL LOG][Proc: 0]Uy: solve_multi_gpu: 141.752 [ms]
BJhipGKOBiCGStab:  Solving for Uy, Initial residual = 0.04460473794777191, Final residual = 0.002386786062362106, No Iterations 13
[OGL LOG][Proc: 0]: global_index_init: 1.365 [ms]
[OGL LOG][Proc: 0]Uz_local_coeffs: call_update: 0 [ms]
[OGL LOG][Proc: 0]Uz_non_local_coeffs: call_update: 0 [ms]
[OGL LOG][Proc: 0]Uz: update_local_matrix_data: 41.261 [ms]
[OGL LOG][Proc: 0]Uz: update_non_local_matrix_data: 0.119 [ms]
[OGL LOG][Proc: 0]Uz_matrix: call_update: 11.827 [ms]
[OGL LOG][Proc: 0]Uz_rhs: call_update: 5.129 [ms]
[OGL LOG][Preconditioner.H:121] Generate preconditioner BJ MaxBlockSize 1
[OGL LOG][Proc: 0]Uz: init_precond: 0.9370000000000001 [ms]
[OGL LOG][StoppingCriterion.H:373] Creating stopping criterion with minIter 13 frequency 1
[OGL LOG][Proc: 0]Uz: generate_solver: 0.001 [ms]
[OGL LOG][Proc: 0]Uz: solve: 116.282 [ms]
[OGL LOG][Proc: 0]Uz: copy_x_back: 4.694 [ms]
[OGL LOG][lduLduBase.H:336] 
Statistics:
	Time per iteration: 10571 [mu s]
	Time per residual norm calculation: 393.000000 [mu s]
	Time per iteration and DOF: 0.419010 [ns]
	Retrieve results bandwidth 1.604000 [GByte/s]
[OGL LOG][Proc: 0]Uz: solve_multi_gpu: 140.37 [ms]
BJhipGKOBiCGStab:  Solving for Uz, Initial residual = 0.04120152148373066, Final residual = 0.003997310223848641, No Iterations 11
[INFO] MomentumPredictor: 697.603 [ms]
[INFO] MatrixAssemblyPI: 329.438 [ms]
[INFO] MatrixAssemblyPII: 155.426 [ms]
GAMG:  Solving for p, Initial residual = 0.0588359660330954, Final residual = 0.0005543390772008505, No Iterations 5
[INFO] SolveP: 828.443 [ms]
time step continuity errors : sum local = 0.004997917081627164, global = -4.786746038734946e-06, cumulative = -0.0007401614017392142
[INFO] postSolveP: 79.304 [ms]
[OGL LOG][Proc: 0]: global_index_init: 2.478 [ms]
[OGL LOG][Proc: 0]nuTilda_local_coeffs: call_update: 0 [ms]
[OGL LOG][Proc: 0]nuTilda_non_local_coeffs: call_update: 0 [ms]
[OGL LOG][Proc: 0]nuTilda: update_local_matrix_data: 42.388 [ms]
[OGL LOG][Proc: 0]nuTilda: update_non_local_matrix_data: 0.128 [ms]
[OGL LOG][Proc: 0]nuTilda_matrix: call_update: 12.002 [ms]
[OGL LOG][Proc: 0]nuTilda_rhs: call_update: 3.813 [ms]
[OGL LOG][Preconditioner.H:121] Generate preconditioner BJ MaxBlockSize 1
[OGL LOG][Proc: 0]nuTilda: init_precond: 0.9430000000000001 [ms]
[OGL LOG][StoppingCriterion.H:373] Creating stopping criterion with minIter 3 frequency 1
[OGL LOG][Proc: 0]nuTilda: generate_solver: 0.001 [ms]
[OGL LOG][Proc: 0]nuTilda: solve: 82.871 [ms]
[OGL LOG][Proc: 0]nuTilda: copy_x_back: 4.725000000000001 [ms]
[OGL LOG][lduLduBase.H:336] 
Statistics:
	Time per iteration: 41435 [mu s]
	Time per residual norm calculation: 329.000000 [mu s]
	Time per iteration and DOF: 1.642386 [ns]
	Retrieve results bandwidth 1.594000 [GByte/s]
[OGL LOG][Proc: 0]nuTilda: solve_multi_gpu: 105.933 [ms]
BJhipGKOBiCGStab:  Solving for nuTilda, Initial residual = 0.03720792354773483, Final residual = 0.001857127611123747, No Iterations 2
[INFO] TimeStep: 4895.555 [ms]
ExecutionTime = 100.97 s  ClockTime = 101 s

Time = 12

velocityDampingConstraint velocityDamping damped 0 (0%) of cells, with max limit 300
[INFO] MatrixAssemblyU: 1696.05 [ms]
[OGL LOG][Proc: 0]: global_index_init: 0.643 [ms]
[OGL LOG][Proc: 0]Ux_local_coeffs: call_update: 0 [ms]
[OGL LOG][Proc: 0]Ux_non_local_coeffs: call_update: 0 [ms]
[OGL LOG][Proc: 0]Ux: update_local_matrix_data: 38.942 [ms]
[OGL LOG][Proc: 0]Ux: update_non_local_matrix_data: 0.125 [ms]
[OGL LOG][Proc: 0]Ux_matrix: call_update: 9.931000000000001 [ms]
[OGL LOG][Proc: 0]Ux_rhs: call_update: 6.876 [ms]
[OGL LOG][Preconditioner.H:121] Generate preconditioner BJ MaxBlockSize 1
[OGL LOG][Proc: 0]Ux: init_precond: 0.9330000000000001 [ms]
[OGL LOG][StoppingCriterion.H:373] Creating stopping criterion with minIter 13 frequency 1
[OGL LOG][Proc: 0]Ux: generate_solver: 0.001 [ms]
[OGL LOG][Proc: 0]Ux: solve: 119.54 [ms]
[OGL LOG][Proc: 0]Ux: copy_x_back: 4.177 [ms]
[OGL LOG][lduLduBase.H:336] 
Statistics:
	Time per iteration: 10867 [mu s]
	Time per residual norm calculation: 392.000000 [mu s]
	Time per iteration and DOF: 0.430742 [ns]
	Retrieve results bandwidth 1.803000 [GByte/s]
[OGL LOG][Proc: 0]Ux: solve_multi_gpu: 143.035 [ms]
BJhipGKOBiCGStab:  Solving for Ux, Initial residual = 0.01261212582252704, Final residual = 0.0008611027886026578, No Iterations 11
[OGL LOG][Proc: 0]: global_index_init: 0.421 [ms]
[OGL LOG][Proc: 0]Uy_local_coeffs: call_update: 0 [ms]
[OGL LOG][Proc: 0]Uy_non_local_coeffs: call_update: 0 [ms]
[OGL LOG][Proc: 0]Uy: update_local_matrix_data: 41.001 [ms]
[OGL LOG][Proc: 0]Uy: update_non_local_matrix_data: 0.113 [ms]
[OGL LOG][Proc: 0]Uy_matrix: call_update: 11.263 [ms]
[OGL LOG][Proc: 0]Uy_rhs: call_update: 6.771 [ms]
[OGL LOG][Preconditioner.H:121] Generate preconditioner BJ MaxBlockSize 1
[OGL LOG][Proc: 0]Uy: init_precond: 0.9370000000000001 [ms]
[OGL LOG][StoppingCriterion.H:373] Creating stopping criterion with minIter 15 frequency 1
[OGL LOG][Proc: 0]Uy: generate_solver: 0.001 [ms]
[OGL LOG][Proc: 0]Uy: solve: 115.12 [ms]
[OGL LOG][Proc: 0]Uy: copy_x_back: 4.201000000000001 [ms]
[OGL LOG][lduLduBase.H:336] 
Statistics:
	Time per iteration: 9593 [mu s]
	Time per residual norm calculation: 392.000000 [mu s]
	Time per iteration and DOF: 0.380244 [ns]
	Retrieve results bandwidth 1.793000 [GByte/s]
[OGL LOG][Proc: 0]Uy: solve_multi_gpu: 139.739 [ms]
BJhipGKOBiCGStab:  Solving for Uy, Initial residual = 0.04090508382547185, Final residual = 0.003488045573676915, No Iterations 12
[OGL LOG][Proc: 0]: global_index_init: 0.34 [ms]
[OGL LOG][Proc: 0]Uz_local_coeffs: call_update: 0 [ms]
[OGL LOG][Proc: 0]Uz_non_local_coeffs: call_update: 0 [ms]
[OGL LOG][Proc: 0]Uz: update_local_matrix_data: 39.599 [ms]
[OGL LOG][Proc: 0]Uz: update_non_local_matrix_data: 0.304 [ms]
[OGL LOG][Proc: 0]Uz_matrix: call_update: 10.077 [ms]
[OGL LOG][Proc: 0]Uz_rhs: call_update: 6.384 [ms]
[OGL LOG][Preconditioner.H:121] Generate preconditioner BJ MaxBlockSize 1
[OGL LOG][Proc: 0]Uz: init_precond: 0.931 [ms]
[OGL LOG][StoppingCriterion.H:373] Creating stopping criterion with minIter 13 frequency 1
[OGL LOG][Proc: 0]Uz: generate_solver: 0.001 [ms]
[OGL LOG][Proc: 0]Uz: solve: 111.344 [ms]
[OGL LOG][Proc: 0]Uz: copy_x_back: 4.161 [ms]
[OGL LOG][lduLduBase.H:336] 
Statistics:
	Time per iteration: 11134 [mu s]
	Time per residual norm calculation: 340.000000 [mu s]
	Time per iteration and DOF: 0.441326 [ns]
	Retrieve results bandwidth 1.810000 [GByte/s]
[OGL LOG][Proc: 0]Uz: solve_multi_gpu: 134.31 [ms]
BJhipGKOBiCGStab:  Solving for Uz, Initial residual = 0.03938091718280223, Final residual = 0.00353341591729557, No Iterations 10
[INFO] MomentumPredictor: 687.954 [ms]
[INFO] MatrixAssemblyPI: 330.848 [ms]
[INFO] MatrixAssemblyPII: 153.612 [ms]
GAMG:  Solving for p, Initial residual = 0.05862630939951509, Final residual = 0.0005486930476257088, No Iterations 5
[INFO] SolveP: 836.908 [ms]
time step continuity errors : sum local = 0.004882304510558303, global = -3.196962723719444e-06, cumulative = -0.0007433583644629336
[INFO] postSolveP: 79.667 [ms]
[OGL LOG][Proc: 0]: global_index_init: 6.574 [ms]
[OGL LOG][Proc: 0]nuTilda_local_coeffs: call_update: 0 [ms]
[OGL LOG][Proc: 0]nuTilda_non_local_coeffs: call_update: 0 [ms]
[OGL LOG][Proc: 0]nuTilda: update_local_matrix_data: 42.506 [ms]
[OGL LOG][Proc: 0]nuTilda: update_non_local_matrix_data: 0.128 [ms]
[OGL LOG][Proc: 0]nuTilda_matrix: call_update: 11.204 [ms]
[OGL LOG][Proc: 0]nuTilda_rhs: call_update: 5.318000000000001 [ms]
[OGL LOG][Preconditioner.H:121] Generate preconditioner BJ MaxBlockSize 1
[OGL LOG][Proc: 0]nuTilda: init_precond: 0.9490000000000001 [ms]
[OGL LOG][StoppingCriterion.H:373] Creating stopping criterion with minIter 3 frequency 1
[OGL LOG][Proc: 0]nuTilda: generate_solver: 0.001 [ms]
[OGL LOG][Proc: 0]nuTilda: solve: 85.157 [ms]
[OGL LOG][Proc: 0]nuTilda: copy_x_back: 4.513 [ms]
[OGL LOG][lduLduBase.H:336] 
Statistics:
[...]
[OGL LOG][Proc: 0]Uy_matrix: call_update: 11.42 [ms]
[OGL LOG][Proc: 0]Uy_rhs: call_update: 1.871 [ms]
[OGL LOG][Preconditioner.H:121] Generate preconditioner BJ MaxBlockSize 1
[OGL LOG][Proc: 0]Uy: init_precond: 1.026 [ms]
[OGL LOG][StoppingCriterion.H:373] Creating stopping criterion with minIter 17 frequency 1
[OGL LOG][Proc: 0]Uy: generate_solver: 0.001 [ms]
[OGL LOG][Proc: 0]Uy: solve: 117.105 [ms]
[OGL LOG][Proc: 0]Uy: copy_x_back: 4.274 [ms]
[OGL LOG][lduLduBase.H:336] 
Statistics:
	Time per iteration: 8364 [mu s]
	Time per residual norm calculation: 393.000000 [mu s]
	Time per iteration and DOF: 0.331529 [ns]
	Retrieve results bandwidth 1.762000 [GByte/s]
[OGL LOG][Proc: 0]Uy: solve_multi_gpu: 137.34 [ms]
BJhipGKOBiCGStab:  Solving for Uy, Initial residual = 0.06313970398100524, Final residual = 0.005768381051738752, No Iterations 14
[OGL LOG][Proc: 0]: global_index_init: 3.386 [ms]
[OGL LOG][Proc: 0]Uz_local_coeffs: call_update: 0 [ms]
[OGL LOG][Proc: 0]Uz_non_local_coeffs: call_update: 0 [ms]
[OGL LOG][Proc: 0]Uz: update_local_matrix_data: 38.789 [ms]
[OGL LOG][Proc: 0]Uz: update_non_local_matrix_data: 0.178 [ms]
[OGL LOG][Proc: 0]Uz_matrix: call_update: 7.838 [ms]
[OGL LOG][Proc: 0]Uz_rhs: call_update: 12.067 [ms]
[OGL LOG][Preconditioner.H:121] Generate preconditioner BJ MaxBlockSize 1
[OGL LOG][Proc: 0]Uz: init_precond: 0.923 [ms]
[OGL LOG][StoppingCriterion.H:373] Creating stopping criterion with minIter 13 frequency 1
[OGL LOG][Proc: 0]Uz: generate_solver: 0.001 [ms]
[OGL LOG][Proc: 0]Uz: solve: 118.485 [ms]
[OGL LOG][Proc: 0]Uz: copy_x_back: 4.203 [ms]
[OGL LOG][lduLduBase.H:336] 
Statistics:
	Time per iteration: 9114 [mu s]
	Time per residual norm calculation: 392.000000 [mu s]
	Time per iteration and DOF: 0.361257 [ns]
	Retrieve results bandwidth 1.792000 [GByte/s]
[OGL LOG][Proc: 0]Uz: solve_multi_gpu: 145.362 [ms]
BJhipGKOBiCGStab:  Solving for Uz, Initial residual = 0.0678230087560121, Final residual = 0.004602136113427848, No Iterations 13
[INFO] MomentumPredictor: 701.886 [ms]
[INFO] MatrixAssemblyPI: 329.487 [ms]
[INFO] MatrixAssemblyPII: 156.539 [ms]
GAMG:  Solving for p, Initial residual = 0.0561649233196416, Final residual = 0.000474031784135774, No Iterations 5
[INFO] SolveP: 839.807 [ms]
time step continuity errors : sum local = 0.004950432557737564, global = -1.579076123306082e-05, cumulative = 4.822018650113898e-05
[INFO] postSolveP: 79.86499999999999 [ms]
[OGL LOG][Proc: 0]: global_index_init: 5.453 [ms]
[OGL LOG][Proc: 0]nuTilda_local_coeffs: call_update: 0 [ms]
[OGL LOG][Proc: 0]nuTilda_non_local_coeffs: call_update: 0 [ms]
[OGL LOG][Proc: 0]nuTilda: update_local_matrix_data: 40.888 [ms]
[OGL LOG][Proc: 0]nuTilda: update_non_local_matrix_data: 0.115 [ms]
[OGL LOG][Proc: 0]nuTilda_matrix: call_update: 12.265 [ms]
[OGL LOG][Proc: 0]nuTilda_rhs: call_update: 4.371 [ms]
[OGL LOG][Preconditioner.H:121] Generate preconditioner BJ MaxBlockSize 1
[OGL LOG][Proc: 0]nuTilda: init_precond: 0.965 [ms]
[OGL LOG][StoppingCriterion.H:373] Creating stopping criterion with minIter 2 frequency 1
[OGL LOG][Proc: 0]nuTilda: generate_solver: 0.001 [ms]
[OGL LOG][Proc: 0]nuTilda: solve: 93.446 [ms]
[OGL LOG][Proc: 0]nuTilda: copy_x_back: 4.517 [ms]
[OGL LOG][lduLduBase.H:336] 
Statistics:
	Time per iteration: 46723 [mu s]
	Time per residual norm calculation: 327.000000 [mu s]
	Time per iteration and DOF: 1.851990 [ns]
	Retrieve results bandwidth 1.667000 [GByte/s]
[OGL LOG][Proc: 0]nuTilda: solve_multi_gpu: 117.456 [ms]
BJhipGKOBiCGStab:  Solving for nuTilda, Initial residual = 0.01173198405891144, Final residual = 0.0007187846103145677, No Iterations 2
bounding nuTilda, min: -0.0003567418926023885 max: 0.006916591631073754 average: 0.0003339796158660378
[INFO] TimeStep: 4945.744 [ms]
ExecutionTime = 325.54 s  ClockTime = 326 s

Time = 48

velocityDampingConstraint velocityDamping damped 0 (0%) of cells, with max limit 300
[INFO] MatrixAssemblyU: 1663.87 [ms]
[OGL LOG][Proc: 0]: global_index_init: 0.361 [ms]
[OGL LOG][Proc: 0]Ux_local_coeffs: call_update: 0 [ms]
[OGL LOG][Proc: 0]Ux_non_local_coeffs: call_update: 0 [ms]
[OGL LOG][Proc: 0]Ux: update_local_matrix_data: 39.658 [ms]
[OGL LOG][Proc: 0]Ux: update_non_local_matrix_data: 0.122 [ms]
[OGL LOG][Proc: 0]Ux_matrix: call_update: 8.75 [ms]
[OGL LOG][Proc: 0]Ux_rhs: call_update: 9.986000000000001 [ms]
[OGL LOG][Preconditioner.H:121] Generate preconditioner BJ MaxBlockSize 1
[OGL LOG][Proc: 0]Ux: init_precond: 0.981 [ms]
[OGL LOG][StoppingCriterion.H:373] Creating stopping criterion with minIter 15 frequency 1
[OGL LOG][Proc: 0]Ux: generate_solver: 0.001 [ms]
[OGL LOG][Proc: 0]Ux: solve: 114.67 [ms]
[OGL LOG][Proc: 0]Ux: copy_x_back: 4.254 [ms]
[OGL LOG][lduLduBase.H:336] 
Statistics:
	Time per iteration: 10424 [mu s]
	Time per residual norm calculation: 409.000000 [mu s]
	Time per iteration and DOF: 0.413183 [ns]
	Retrieve results bandwidth 1.770000 [GByte/s]
[OGL LOG][Proc: 0]Ux: solve_multi_gpu: 140.462 [ms]
BJhipGKOBiCGStab:  Solving for Ux, Initial residual = 0.01170823037249475, Final residual = 0.001019066201513217, No Iterations 11
[OGL LOG][Proc: 0]: global_index_init: 0.268 [ms]
[OGL LOG][Proc: 0]Uy_local_coeffs: call_update: 0 [ms]
[OGL LOG][Proc: 0]Uy_non_local_coeffs: call_update: 0 [ms]
[OGL LOG][Proc: 0]Uy: update_local_matrix_data: 39.73 [ms]
[OGL LOG][Proc: 0]Uy: update_non_local_matrix_data: 0.125 [ms]
[OGL LOG][Proc: 0]Uy_matrix: call_update: 14.132 [ms]
[OGL LOG][Proc: 0]Uy_rhs: call_update: 2.364 [ms]
[OGL LOG][Preconditioner.H:121] Generate preconditioner BJ MaxBlockSize 1
[OGL LOG][Proc: 0]Uy: init_precond: 0.999 [ms]
[OGL LOG][StoppingCriterion.H:373] Creating stopping criterion with minIter 16 frequency 1
[OGL LOG][Proc: 0]Uy: generate_solver: 0.001 [ms]
[OGL LOG][Proc: 0]Uy: solve: 112.644 [ms]
[OGL LOG][Proc: 0]Uy: copy_x_back: 4.402 [ms]
[OGL LOG][lduLduBase.H:336] 
Statistics:
	Time per iteration: 11264 [mu s]
	Time per residual norm calculation: 428.000000 [mu s]
	Time per iteration and DOF: 0.446478 [ns]
	Retrieve results bandwidth 1.711000 [GByte/s]
[OGL LOG][Proc: 0]Uy: solve_multi_gpu: 136.18 [ms]
BJhipGKOBiCGStab:  Solving for Uy, Initial residual = 0.06181549286484807, Final residual = 0.006179328551334975, No Iterations 10
[OGL LOG][Proc: 0]: global_index_init: 0.462 [ms]
[OGL LOG][Proc: 0]Uz_local_coeffs: call_update: 0 [ms]
[OGL LOG][Proc: 0]Uz_non_local_coeffs: call_update: 0 [ms]
[OGL LOG][Proc: 0]Uz: update_local_matrix_data: 40.232 [ms]
[OGL LOG][Proc: 0]Uz: update_non_local_matrix_data: 0.13 [ms]
[OGL LOG][Proc: 0]Uz_matrix: call_update: 11.383 [ms]
[OGL LOG][Proc: 0]Uz_rhs: call_update: 3.816 [ms]
[OGL LOG][Preconditioner.H:121] Generate preconditioner BJ MaxBlockSize 1
[OGL LOG][Proc: 0]Uz: init_precond: 0.988 [ms]
[OGL LOG][StoppingCriterion.H:373] Creating stopping criterion with minIter 15 frequency 1
[OGL LOG][Proc: 0]Uz: generate_solver: 0.001 [ms]
[OGL LOG][Proc: 0]Uz: solve: 115.026 [ms]
[OGL LOG][Proc: 0]Uz: copy_x_back: 4.484 [ms]
[OGL LOG][lduLduBase.H:336] 
Statistics:
	Time per iteration: 11502 [mu s]
	Time per residual norm calculation: 340.000000 [mu s]
	Time per iteration and DOF: 0.455912 [ns]
	Retrieve results bandwidth 1.680000 [GByte/s]
[OGL LOG][Proc: 0]Uz: solve_multi_gpu: 137.445 [ms]
BJhipGKOBiCGStab:  Solving for Uz, Initial residual = 0.06930650048399992, Final residual = 0.006819741373605908, No Iterations 10
[INFO] MomentumPredictor: 685.141 [ms]
[INFO] MatrixAssemblyPI: 327.912 [ms]
[INFO] MatrixAssemblyPII: 155.436 [ms]
GAMG:  Solving for p, Initial residual = 0.05486078791180714, Final residual = 0.0004738762926299582, No Iterations 5
[INFO] SolveP: 841.122 [ms]
time step continuity errors : sum local = 0.004859503831418008, global = 1.039583120108597e-05, cumulative = 5.861601770222494e-05
[INFO] postSolveP: 78.90600000000001 [ms]
[OGL LOG][Proc: 0]: global_index_init: 8.183 [ms]
[OGL LOG][Proc: 0]nuTilda_local_coeffs: call_update: 0 [ms]
[OGL LOG][Proc: 0]nuTilda_non_local_coeffs: call_update: 0 [ms]
[OGL LOG][Proc: 0]nuTilda: update_local_matrix_data: 42.504 [ms]
[OGL LOG][Proc: 0]nuTilda: update_non_local_matrix_data: 0.116 [ms]
[OGL LOG][Proc: 0]nuTilda_matrix: call_update: 12.854 [ms]
[OGL LOG][Proc: 0]nuTilda_rhs: call_update: 1.687 [ms]
[OGL LOG][Preconditioner.H:121] Generate preconditioner BJ MaxBlockSize 1
[OGL LOG][Proc: 0]nuTilda: init_precond: 0.991 [ms]
[OGL LOG][StoppingCriterion.H:373] Creating stopping criterion with minIter 3 frequency 1
[OGL LOG][Proc: 0]nuTilda: generate_solver: 0.001 [ms]
[OGL LOG][Proc: 0]nuTilda: solve: 76.404 [ms]
[OGL LOG][Proc: 0]nuTilda: copy_x_back: 5.077 [ms]
[OGL LOG][lduLduBase.H:336] 
Statistics:
	Time per iteration: 38202 [mu s]
	Time per residual norm calculation: 397.000000 [mu s]
	Time per iteration and DOF: 1.514237 [ns]
	Retrieve results bandwidth 1.483000 [GByte/s]
[OGL LOG][Proc: 0]nuTilda: solve_multi_gpu: 101.939 [ms]
BJhipGKOBiCGStab:  Solving for nuTilda, Initial residual = 0.01559645780046895, Final residual = 0.001342912893357117, No Iterations 2
bounding nuTilda, min: -0.001275460449795377 max: 0.006956450662026203 average: 0.0003407205358665298
[INFO] TimeStep: 4912.676 [ms]
ExecutionTime = 331.71 s  ClockTime = 333 s

Time = 49

velocityDampingConstraint velocityDamping damped 0 (0%) of cells, with max limit 300
[INFO] MatrixAssemblyU: 1663.455 [ms]
[OGL LOG][Proc: 0]: global_index_init: 0.203 [ms]
[OGL LOG][Proc: 0]Ux_local_coeffs: call_update: 0 [ms]
[OGL LOG][Proc: 0]Ux_non_local_coeffs: call_update: 0 [ms]
[OGL LOG][Proc: 0]Ux: update_local_matrix_data: 41.076 [ms]
[OGL LOG][Proc: 0]Ux: update_non_local_matrix_data: 0.111 [ms]
[OGL LOG][Proc: 0]Ux_matrix: call_update: 12.915 [ms]
[OGL LOG][Proc: 0]Ux_rhs: call_update: 4.111 [ms]
[OGL LOG][Preconditioner.H:121] Generate preconditioner BJ MaxBlockSize 1
[OGL LOG][Proc: 0]Ux: init_precond: 0.986 [ms]
[OGL LOG][StoppingCriterion.H:373] Creating stopping criterion with minIter 13 frequency 1
[OGL LOG][Proc: 0]Ux: generate_solver: 0.001 [ms]
[OGL LOG][Proc: 0]Ux: solve: 126.098 [ms]
[OGL LOG][Proc: 0]Ux: copy_x_back: 4.152 [ms]
[OGL LOG][lduLduBase.H:336] 
Statistics:
	Time per iteration: 9699 [mu s]
	Time per residual norm calculation: 392.000000 [mu s]
	Time per iteration and DOF: 0.384445 [ns]
	Retrieve results bandwidth 1.814000 [GByte/s]
[OGL LOG][Proc: 0]Ux: solve_multi_gpu: 150.06 [ms]
BJhipGKOBiCGStab:  Solving for Ux, Initial residual = 0.01133222267113593, Final residual = 0.0005906214649578905, No Iterations 13
[OGL LOG][Proc: 0]: global_index_init: 3.6 [ms]
[OGL LOG][Proc: 0]Uy_local_coeffs: call_update: 0 [ms]
[OGL LOG][Proc: 0]Uy_non_local_coeffs: call_update: 0 [ms]
[OGL LOG][Proc: 0]Uy: update_local_matrix_data: 41.245 [ms]
[OGL LOG][Proc: 0]Uy: update_non_local_matrix_data: 0.112 [ms]
[OGL LOG][Proc: 0]Uy_matrix: call_update: 12.616 [ms]
[OGL LOG][Proc: 0]Uy_rhs: call_update: 1.447 [ms]
[OGL LOG][Preconditioner.H:121] Generate preconditioner BJ MaxBlockSize 1
[OGL LOG][Proc: 0]Uy: init_precond: 0.982 [ms]
[OGL LOG][StoppingCriterion.H:373] Creating stopping criterion with minIter 12 frequency 1
[OGL LOG][Proc: 0]Uy: generate_solver: 0.001 [ms]
[OGL LOG][Proc: 0]Uy: solve: 124.813 [ms]
[OGL LOG][Proc: 0]Uy: copy_x_back: 4.047 [ms]
[OGL LOG][lduLduBase.H:336] 
Statistics:
	Time per iteration: 9601 [mu s]
	Time per residual norm calculation: 331.000000 [mu s]
	Time per iteration and DOF: 0.380561 [ns]
	Retrieve results bandwidth 1.861000 [GByte/s]
[OGL LOG][Proc: 0]Uy: solve_multi_gpu: 145.594 [ms]
BJhipGKOBiCGStab:  Solving for Uy, Initial residual = 0.06100982369382528, Final residual = 0.005945720442020767, No Iterations 13
[OGL LOG][Proc: 0]: global_index_init: 0.541 [ms]
[OGL LOG][Proc: 0]Uz_local_coeffs: call_update: 0 [ms]
[OGL LOG][Proc: 0]Uz_non_local_coeffs: call_update: 0 [ms]
[OGL LOG][Proc: 0]Uz: update_local_matrix_data: 40.279 [ms]
[OGL LOG][Proc: 0]Uz: update_non_local_matrix_data: 0.096 [ms]
[OGL LOG][Proc: 0]Uz_matrix: call_update: 10.637 [ms]
[OGL LOG][Proc: 0]Uz_rhs: call_update: 3.356 [ms]
[OGL LOG][Preconditioner.H:121] Generate preconditioner BJ MaxBlockSize 1
[OGL LOG][Proc: 0]Uz: init_precond: 1.017 [ms]
[OGL LOG][StoppingCriterion.H:373] Creating stopping criterion with minIter 12 frequency 1
[OGL LOG][Proc: 0]Uz: generate_solver: 0.001 [ms]
[OGL LOG][Proc: 0]Uz: solve: 137.756 [ms]
[OGL LOG][Proc: 0]Uz: copy_x_back: 4.218 [ms]
[OGL LOG][lduLduBase.H:336] 
Statistics:
	Time per iteration: 9839 [mu s]
	Time per residual norm calculation: 393.000000 [mu s]
	Time per iteration and DOF: 0.389995 [ns]
	Retrieve results bandwidth 1.786000 [GByte/s]
[OGL LOG][Proc: 0]Uz: solve_multi_gpu: 158.839 [ms]
BJhipGKOBiCGStab:  Solving for Uz, Initial residual = 0.06480481361046916, Final residual = 0.005217921264774572, No Iterations 14
[INFO] MomentumPredictor: 730.5359999999999 [ms]
[INFO] MatrixAssemblyPI: 327.943 [ms]
[INFO] MatrixAssemblyPII: 154.762 [ms]
GAMG:  Solving for p, Initial residual = 0.07734837883940754, Final residual = 0.0005615182153074388, No Iterations 5
[INFO] SolveP: 843.698 [ms]
time step continuity errors : sum local = 0.005759346557138239, global = 6.799238577098682e-06, cumulative = 6.541525627932362e-05
[INFO] postSolveP: 78.35899999999999 [ms]
[OGL LOG][Proc: 0]: global_index_init: 6.078 [ms]
[OGL LOG][Proc: 0]nuTilda_local_coeffs: call_update: 0 [ms]
[OGL LOG][Proc: 0]nuTilda_non_local_coeffs: call_update: 0 [ms]
[OGL LOG][Proc: 0]nuTilda: update_local_matrix_data: 40.598 [ms]
[OGL LOG][Proc: 0]nuTilda: update_non_local_matrix_data: 0.127 [ms]
[OGL LOG][Proc: 0]nuTilda_matrix: call_update: 10.621 [ms]
[OGL LOG][Proc: 0]nuTilda_rhs: call_update: 5.313 [ms]
[OGL LOG][Preconditioner.H:121] Generate preconditioner BJ MaxBlockSize 1
[OGL LOG][Proc: 0]nuTilda: init_precond: 0.917 [ms]
[OGL LOG][StoppingCriterion.H:373] Creating stopping criterion with minIter 2 frequency 1
[OGL LOG][Proc: 0]nuTilda: generate_solver: 0.001 [ms]
[OGL LOG][Proc: 0]nuTilda: solve: 84.437 [ms]
[OGL LOG][Proc: 0]nuTilda: copy_x_back: 4.382 [ms]
[OGL LOG][lduLduBase.H:336] 
Statistics:
	Time per iteration: 42218 [mu s]
	Time per residual norm calculation: 325.000000 [mu s]
	Time per iteration and DOF: 1.673422 [ns]
	Retrieve results bandwidth 1.719000 [GByte/s]
[OGL LOG][Proc: 0]nuTilda: solve_multi_gpu: 107.34 [ms]
BJhipGKOBiCGStab:  Solving for nuTilda, Initial residual = 0.01133589007486257, Final residual = 0.0007009269077946755, No Iterations 2
bounding nuTilda, min: -0.0007569683638088322 max: 0.007009186505271323 average: 0.0003504244789949342
[INFO] TimeStep: 4962.684 [ms]
ExecutionTime = 337.95 s  ClockTime = 339 s

Time = 50

velocityDampingConstraint velocityDamping damped 0 (0%) of cells, with max limit 300
[INFO] MatrixAssemblyU: 1665.03 [ms]
[OGL LOG][Proc: 0]: global_index_init: 0.386 [ms]
[OGL LOG][Proc: 0]Ux_local_coeffs: call_update: 0 [ms]
[OGL LOG][Proc: 0]Ux_non_local_coeffs: call_update: 0 [ms]
[OGL LOG][Proc: 0]Ux: update_local_matrix_data: 40.146 [ms]
[OGL LOG][Proc: 0]Ux: update_non_local_matrix_data: 0.105 [ms]
[OGL LOG][Proc: 0]Ux_matrix: call_update: 9.795 [ms]
[OGL LOG][Proc: 0]Ux_rhs: call_update: 2.98 [ms]
[OGL LOG][Preconditioner.H:121] Generate preconditioner BJ MaxBlockSize 1
[OGL LOG][Proc: 0]Ux: init_precond: 0.888 [ms]
[OGL LOG][StoppingCriterion.H:373] Creating stopping criterion with minIter 15 frequency 1
[OGL LOG][Proc: 0]Ux: generate_solver: 0.001 [ms]
[OGL LOG][Proc: 0]Ux: solve: 121.622 [ms]
[OGL LOG][Proc: 0]Ux: copy_x_back: 4.476 [ms]
[OGL LOG][lduLduBase.H:336] 
Statistics:
	Time per iteration: 10135 [mu s]
	Time per residual norm calculation: 325.000000 [mu s]
	Time per iteration and DOF: 0.401728 [ns]
	Retrieve results bandwidth 1.683000 [GByte/s]
[OGL LOG][Proc: 0]Ux: solve_multi_gpu: 141.402 [ms]
BJhipGKOBiCGStab:  Solving for Ux, Initial residual = 0.01243357696691023, Final residual = 0.001113449811668802, No Iterations 12
[OGL LOG][Proc: 0]: global_index_init: 0.175 [ms]
[OGL LOG][Proc: 0]Uy_local_coeffs: call_update: 0 [ms]
[OGL LOG][Proc: 0]Uy_non_local_coeffs: call_update: 0 [ms]
[OGL LOG][Proc: 0]Uy: update_local_matrix_data: 40.505 [ms]
[OGL LOG][Proc: 0]Uy: update_non_local_matrix_data: 0.126 [ms]
[OGL LOG][Proc: 0]Uy_matrix: call_update: 11.638 [ms]
[OGL LOG][Proc: 0]Uy_rhs: call_update: 4.376 [ms]
[OGL LOG][Preconditioner.H:121] Generate preconditioner BJ MaxBlockSize 1
[OGL LOG][Proc: 0]Uy: init_precond: 1.277 [ms]
[OGL LOG][StoppingCriterion.H:373] Creating stopping criterion with minIter 16 frequency 1
[OGL LOG][Proc: 0]Uy: generate_solver: 0.001 [ms]
[OGL LOG][Proc: 0]Uy: solve: 109.682 [ms]
[OGL LOG][Proc: 0]Uy: copy_x_back: 4.232 [ms]
[OGL LOG][lduLduBase.H:336] 
Statistics:
	Time per iteration: 9971 [mu s]
	Time per residual norm calculation: 390.000000 [mu s]
	Time per iteration and DOF: 0.395227 [ns]
	Retrieve results bandwidth 1.780000 [GByte/s]
[OGL LOG][Proc: 0]Uy: solve_multi_gpu: 132.855 [ms]
BJhipGKOBiCGStab:  Solving for Uy, Initial residual = 0.06182292061978931, Final residual = 0.005465630683655456, No Iterations 11
[OGL LOG][Proc: 0]: global_index_init: 0.498 [ms]
[OGL LOG][Proc: 0]Uz_local_coeffs: call_update: 0 [ms]
[OGL LOG][Proc: 0]Uz_non_local_coeffs: call_update: 0 [ms]
[OGL LOG][Proc: 0]Uz: update_local_matrix_data: 43.005 [ms]
[OGL LOG][Proc: 0]Uz: update_non_local_matrix_data: 0.126 [ms]
[OGL LOG][Proc: 0]Uz_matrix: call_update: 11.304 [ms]
[OGL LOG][Proc: 0]Uz_rhs: call_update: 3.422 [ms]
[OGL LOG][Preconditioner.H:121] Generate preconditioner BJ MaxBlockSize 1
[OGL LOG][Proc: 0]Uz: init_precond: 1.003 [ms]
[OGL LOG][StoppingCriterion.H:373] Creating stopping criterion with minIter 16 frequency 1
[OGL LOG][Proc: 0]Uz: generate_solver: 0.001 [ms]
[OGL LOG][Proc: 0]Uz: solve: 125.68 [ms]
[OGL LOG][Proc: 0]Uz: copy_x_back: 3.989 [ms]
[OGL LOG][lduLduBase.H:336] 
Statistics:
	Time per iteration: 10473 [mu s]
	Time per residual norm calculation: 392.000000 [mu s]
	Time per iteration and DOF: 0.415125 [ns]
	Retrieve results bandwidth 1.888000 [GByte/s]
[OGL LOG][Proc: 0]Uz: solve_multi_gpu: 147.26 [ms]
BJhipGKOBiCGStab:  Solving for Uz, Initial residual = 0.130790870524306, Final residual = 0.009760585799021154, No Iterations 12
[INFO] MomentumPredictor: 698.5700000000001 [ms]
[INFO] MatrixAssemblyPI: 328.681 [ms]
[INFO] MatrixAssemblyPII: 155.192 [ms]
GAMG:  Solving for p, Initial residual = 0.0656373674501599, Final residual = 0.0006470194591739774, No Iterations 5
[INFO] SolveP: 833.432 [ms]
time step continuity errors : sum local = 0.006628909056758972, global = 3.333478697276989e-05, cumulative = 9.87500432520935e-05
[INFO] postSolveP: 79.217 [ms]
[OGL LOG][Proc: 0]: global_index_init: 4.035 [ms]
[OGL LOG][Proc: 0]nuTilda_local_coeffs: call_update: 0 [ms]
[OGL LOG][Proc: 0]nuTilda_non_local_coeffs: call_update: 0 [ms]
[OGL LOG][Proc: 0]nuTilda: update_local_matrix_data: 42.323 [ms]
[OGL LOG][Proc: 0]nuTilda: update_non_local_matrix_data: 0.128 [ms]
[OGL LOG][Proc: 0]nuTilda_matrix: call_update: 12.67 [ms]
[OGL LOG][Proc: 0]nuTilda_rhs: call_update: 3.12 [ms]
[OGL LOG][Preconditioner.H:121] Generate preconditioner BJ MaxBlockSize 1
[OGL LOG][Proc: 0]nuTilda: init_precond: 0.993 [ms]
[OGL LOG][StoppingCriterion.H:373] Creating stopping criterion with minIter 3 frequency 1
[OGL LOG][Proc: 0]nuTilda: generate_solver: 0.001 [ms]
[OGL LOG][Proc: 0]nuTilda: solve: 76.372 [ms]
[OGL LOG][Proc: 0]nuTilda: copy_x_back: 4.917 [ms]
[OGL LOG][lduLduBase.H:336] 
Statistics:
	Time per iteration: 38186 [mu s]
	Time per residual norm calculation: 398.000000 [mu s]
	Time per iteration and DOF: 1.513603 [ns]
	Retrieve results bandwidth 1.532000 [GByte/s]
[OGL LOG][Proc: 0]nuTilda: solve_multi_gpu: 99.871 [ms]
BJhipGKOBiCGStab:  Solving for nuTilda, Initial residual = 0.01495365654713313, Final residual = 0.001302207954436162, No Iterations 2
bounding nuTilda, min: -0.001026102281253095 max: 0.007042885858214057 average: 0.0003571919091912294
[INFO] TimeStep: 4918.651 [ms]
ExecutionTime = 344.14 s  ClockTime = 345 s

End

Finalising parallel run
