/*---------------------------------------------------------------------------*\
| =========                 |                                                 |
| \\      /  F ield         | OpenFOAM: The Open Source CFD Toolbox           |
|  \\    /   O peration     | Version:  2306                                  |
|   \\  /    A nd           | Website:  www.openfoam.com                      |
|    \\/     M anipulation  |                                                 |
\*---------------------------------------------------------------------------*/
Build  : a6e826bd55-20230630 OPENFOAM=2306 version=v2306
Arch   : "LSB;label=32;scalar=64"
Exec   : icoFoam -parallel -case /tmp/lidDrivenCavity/workspace/10943ba22b3039b77ff191bbb1758c2c/case
Date   : Dec 21 2023
Time   : 19:12:20
Host   : nla-gpu2.ianm.kit.edu
PID    : 411244
I/O    : uncollated
Case   : /tmp/lidDrivenCavity/workspace/10943ba22b3039b77ff191bbb1758c2c/case
nProcs : 32
Hosts  :
(
    (nla-gpu2.ianm.kit.edu 32)
)
Pstream initialized with:
    floatTransfer      : false
    nProcsSimpleSum    : 0
    nonBlockingExchange: 0 (tuning: 0)
    exchange algorithm : -1
    commsType          : nonBlocking
    polling iterations : 0
trapFpe: Floating point exception trapping enabled (FOAM_SIGFPE).
fileModificationChecking : Monitoring run-time modified files using timeStampMaster (fileModificationSkew 5, maxFileModificationPolls 20)
allowSystemOperations : Allowing user-supplied system call operations

// * * * * * * * * * * * * * * * * * * * * * * * * * * * * * * * * * * * * * //
Create time

--> FOAM Warning : 
    From void* Foam::dlLibraryTable::openLibrary(const Foam::fileName&, bool)
    in file db/dynamicLibrary/dlLibraryTable/dlLibraryTable.C at line 188
    Could not load "libpetscFoam.so"
libpetscFoam.so: cannot open shared object file: No such file or directory
Create mesh for time = 0


PISO: Operating solver in PISO mode

Reading transportProperties

Reading field p

Reading field U

Reading/calculating face flux field phi


Starting time loop

Time = 0.000125

Courant Number mean: 8.02505e-18 max: 4.85723e-14
[INFO] MatrixAssemblyU: 573.592 [ms]
DILUPBiCGStab:  Solving for Ux, Initial residual = 1, Final residual = 0.0215184, No Iterations 5
DILUPBiCGStab:  Solving for Uy:  solution singularity
DILUPBiCGStab:  Solving for Uz:  solution singularity
[INFO] MomentumPredictor: 2060.98 [ms]
[INFO] MatrixAssemblyPI: 590.967 [ms]
[INFO] AdjustPhi: 25.388 [ms]
[INFO] ConstrainPressure: 0.019 [ms]
[INFO] MatrixAssemblyPII: 166.843 [ms]
DICPCG:  Solving for p, Initial residual = 1, Final residual = 9.77144e-05, No Iterations 1229
[INFO] SolveP: 123276 [ms]
time step continuity errors : sum local = 2.47877e-09, global = 3.515e-22, cumulative = 3.515e-22
[INFO] ContinuityError: 58.722 [ms]
[INFO] CorrectBoundary: 1.029 [ms]
[INFO] PISOStep: 124308 [ms]
[INFO] MatrixAssemblyPI: 557.437 [ms]
[INFO] AdjustPhi: 24.777 [ms]
[INFO] ConstrainPressure: 0.003 [ms]
[INFO] MatrixAssemblyPII: 166.547 [ms]
DICPCG:  Solving for p, Initial residual = 0.82208, Final residual = 9.84812e-05, No Iterations 1225
[INFO] SolveP: 122765 [ms]
time step continuity errors : sum local = 3.00993e-09, global = 8.85402e-23, cumulative = 4.4004e-22
[INFO] ContinuityError: 59.577 [ms]
[INFO] CorrectBoundary: 1.147 [ms]
[INFO] PISOStep: 123762 [ms]
[INFO] TimeStep: 250768 [ms]
ExecutionTime = 251.46 s  ClockTime = 253 s

Time = 0.00025

Courant Number mean: 0.0108529 max: 0.437705
[INFO] MatrixAssemblyU: 508.321 [ms]
DILUPBiCGStab:  Solving for Ux, Initial residual = 0.108167, Final residual = 0.0135461, No Iterations 5
DILUPBiCGStab:  Solving for Uy, Initial residual = 0.484636, Final residual = 0.0533657, No Iterations 5
DILUPBiCGStab:  Solving for Uz, Initial residual = 0.990099, Final residual = 0.120279, No Iterations 5
[INFO] MomentumPredictor: 3930.28 [ms]
[INFO] MatrixAssemblyPI: 575.282 [ms]
[INFO] AdjustPhi: 25.02 [ms]
[INFO] ConstrainPressure: 0.003 [ms]
[INFO] MatrixAssemblyPII: 164.56 [ms]
DICPCG:  Solving for p, Initial residual = 0.908271, Final residual = 9.91275e-05, No Iterations 667
[INFO] SolveP: 66732.7 [ms]
time step continuity errors : sum local = 7.93515e-09, global = 9.17188e-22, cumulative = 1.35723e-21
[INFO] ContinuityError: 59.376 [ms]
[INFO] CorrectBoundary: 1.664 [ms]
[INFO] PISOStep: 67747.4 [ms]
[INFO] MatrixAssemblyPI: 558.506 [ms]
[INFO] AdjustPhi: 25.158 [ms]
[INFO] ConstrainPressure: 0.003 [ms]
[INFO] MatrixAssemblyPII: 164.362 [ms]
DICPCG:  Solving for p, Initial residual = 0.859155, Final residual = 9.80067e-05, No Iterations 658
[INFO] SolveP: 65993.1 [ms]
time step continuity errors : sum local = 7.40296e-09, global = 5.37409e-22, cumulative = 1.89464e-21
[INFO] ContinuityError: 59.266 [ms]
[INFO] CorrectBoundary: 1.269 [ms]
[INFO] PISOStep: 66991.6 [ms]
[INFO] TimeStep: 139239 [ms]
ExecutionTime = 389.88 s  ClockTime = 392 s

Time = 0.000375

Courant Number mean: 0.0169392 max: 0.511584
[INFO] MatrixAssemblyU: 509.126 [ms]
DILUPBiCGStab:  Solving for Ux, Initial residual = 0.0536189, Final residual = 0.00547043, No Iterations 5
DILUPBiCGStab:  Solving for Uy, Initial residual = 0.262369, Final residual = 0.0268394, No Iterations 5
DILUPBiCGStab:  Solving for Uz, Initial residual = 0.871638, Final residual = 0.0882115, No Iterations 5
[INFO] MomentumPredictor: 3931.81 [ms]
[INFO] MatrixAssemblyPI: 574.529 [ms]
[INFO] AdjustPhi: 25.041 [ms]
[INFO] ConstrainPressure: 0.002 [ms]
[INFO] MatrixAssemblyPII: 165.223 [ms]
DICPCG:  Solving for p, Initial residual = 0.941528, Final residual = 9.56453e-05, No Iterations 1216
[INFO] SolveP: 121634 [ms]
time step continuity errors : sum local = 8.56373e-09, global = -3.92009e-22, cumulative = 1.50263e-21
[INFO] ContinuityError: 61.606 [ms]
[INFO] CorrectBoundary: 0.895 [ms]
[INFO] PISOStep: 122648 [ms]
[INFO] MatrixAssemblyPI: 558.713 [ms]
[INFO] AdjustPhi: 24.36 [ms]
[INFO] ConstrainPressure: 0.004 [ms]
[INFO] MatrixAssemblyPII: 164.419 [ms]
DICPCG:  Solving for p, Initial residual = 0.908883, Final residual = 9.65342e-05, No Iterations 1215
[INFO] SolveP: 121822 [ms]
time step continuity errors : sum local = 8.57695e-09, global = -1.24643e-23, cumulative = 1.49016e-21
[INFO] ContinuityError: 60.956 [ms]
[INFO] CorrectBoundary: 1.819 [ms]
[INFO] PISOStep: 122821 [ms]
[INFO] TimeStep: 249972 [ms]
ExecutionTime = 638.41 s  ClockTime = 642 s

Time = 0.0005

Courant Number mean: 0.0205477 max: 0.477564
[INFO] MatrixAssemblyU: 506.586 [ms]
DILUPBiCGStab:  Solving for Ux, Initial residual = 0.0416646, Final residual = 0.00508761, No Iterations 5
DILUPBiCGStab:  Solving for Uy, Initial residual = 0.214074, Final residual = 0.0243827, No Iterations 5
DILUPBiCGStab:  Solving for Uz, Initial residual = 0.785516, Final residual = 0.0641338, No Iterations 5
[INFO] MomentumPredictor: 3933.17 [ms]
[INFO] MatrixAssemblyPI: 575.475 [ms]
[INFO] AdjustPhi: 25.063 [ms]
[INFO] ConstrainPressure: 0.003 [ms]
[INFO] MatrixAssemblyPII: 160.354 [ms]
DICPCG:  Solving for p, Initial residual = 0.93832, Final residual = 9.95092e-05, No Iterations 574
[INFO] SolveP: 57472.2 [ms]
time step continuity errors : sum local = 1.27339e-08, global = 4.94654e-22, cumulative = 1.98482e-21
[INFO] ContinuityError: 59.246 [ms]
[INFO] CorrectBoundary: 1.632 [ms]
[INFO] PISOStep: 58487.2 [ms]
[INFO] MatrixAssemblyPI: 557.637 [ms]
[INFO] AdjustPhi: 26.185 [ms]
[INFO] ConstrainPressure: 0.003 [ms]
[INFO] MatrixAssemblyPII: 164.633 [ms]
DICPCG:  Solving for p, Initial residual = 0.880512, Final residual = 9.80531e-05, No Iterations 566
[INFO] SolveP: 56981.1 [ms]
time step continuity errors : sum local = 1.154e-08, global = 9.39005e-22, cumulative = 2.92382e-21
[INFO] ContinuityError: 58.741 [ms]
[INFO] CorrectBoundary: 1.294 [ms]
[INFO] PISOStep: 57979.8 [ms]
[INFO] TimeStep: 120969 [ms]
ExecutionTime = 758.69 s  ClockTime = 763 s

Time = 0.000625

Courant Number mean: 0.0236173 max: 0.556181
[INFO] MatrixAssemblyU: 504.743 [ms]
DILUPBiCGStab:  Solving for Ux, Initial residual = 0.0375055, Final residual = 0.00458336, No Iterations 5
DILUPBiCGStab:  Solving for Uy, Initial residual = 0.185959, Final residual = 0.0205766, No Iterations 5
DILUPBiCGStab:  Solving for Uz, Initial residual = 0.763003, Final residual = 0.0599201, No Iterations 5
[INFO] MomentumPredictor: 3930.17 [ms]
[INFO] MatrixAssemblyPI: 575.496 [ms]
[INFO] AdjustPhi: 24.174 [ms]
[INFO] ConstrainPressure: 0.002 [ms]
[INFO] MatrixAssemblyPII: 163.909 [ms]
DICPCG:  Solving for p, Initial residual = 0.954465, Final residual = 9.90481e-05, No Iterations 1211
[INFO] SolveP: 121461 [ms]
time step continuity errors : sum local = 1.24311e-08, global = -3.7395e-22, cumulative = 2.54987e-21
[INFO] ContinuityError: 59.527 [ms]
[INFO] CorrectBoundary: 0.863 [ms]
[INFO] PISOStep: 122478 [ms]
[INFO] MatrixAssemblyPI: 557.983 [ms]
[INFO] AdjustPhi: 24.684 [ms]
[INFO] ConstrainPressure: 0.004 [ms]
[INFO] MatrixAssemblyPII: 166.608 [ms]
DICPCG:  Solving for p, Initial residual = 0.915042, Final residual = 9.98065e-05, No Iterations 1210
[INFO] SolveP: 121263 [ms]
time step continuity errors : sum local = 1.24544e-08, global = 7.62564e-22, cumulative = 3.31244e-21
[INFO] ContinuityError: 58.756 [ms]
[INFO] CorrectBoundary: 0.663 [ms]
[INFO] PISOStep: 122261 [ms]
[INFO] TimeStep: 249235 [ms]
ExecutionTime = 1006.53 s  ClockTime = 1012 s

Time = 0.00075

Courant Number mean: 0.0259542 max: 0.48335
[INFO] MatrixAssemblyU: 507.083 [ms]
DILUPBiCGStab:  Solving for Ux, Initial residual = 0.0354745, Final residual = 0.00440378, No Iterations 5
DILUPBiCGStab:  Solving for Uy, Initial residual = 0.171981, Final residual = 0.017415, No Iterations 5
DILUPBiCGStab:  Solving for Uz, Initial residual = 0.704933, Final residual = 0.0474579, No Iterations 5
[INFO] MomentumPredictor: 3927.05 [ms]
[INFO] MatrixAssemblyPI: 574.617 [ms]
[INFO] AdjustPhi: 25.79 [ms]
[INFO] ConstrainPressure: 0.002 [ms]
[INFO] MatrixAssemblyPII: 166.402 [ms]
DICPCG:  Solving for p, Initial residual = 0.95158, Final residual = 9.57309e-05, No Iterations 1208
[INFO] SolveP: 121106 [ms]
time step continuity errors : sum local = 1.39066e-08, global = -1.49605e-22, cumulative = 3.16283e-21
[INFO] ContinuityError: 60.973 [ms]
[INFO] CorrectBoundary: 1.26 [ms]
[INFO] PISOStep: 122124 [ms]
[INFO] MatrixAssemblyPI: 558.283 [ms]
[INFO] AdjustPhi: 24.784 [ms]
[INFO] ConstrainPressure: 0.003 [ms]
[INFO] MatrixAssemblyPII: 165.577 [ms]
DICPCG:  Solving for p, Initial residual = 0.891259, Final residual = 9.73289e-05, No Iterations 1207
[INFO] SolveP: 121185 [ms]
time step continuity errors : sum local = 1.43642e-08, global = 8.0924e-22, cumulative = 3.97207e-21
[INFO] ContinuityError: 60.606 [ms]
[INFO] CorrectBoundary: 1.375 [ms]
[INFO] PISOStep: 122183 [ms]
[INFO] TimeStep: 248803 [ms]
ExecutionTime = 1253.89 s  ClockTime = 1261 s

Time = 0.000875

Courant Number mean: 0.0281474 max: 0.612439
[INFO] MatrixAssemblyU: 511.849 [ms]
DILUPBiCGStab:  Solving for Ux, Initial residual = 0.0351378, Final residual = 0.00418092, No Iterations 5
DILUPBiCGStab:  Solving for Uy, Initial residual = 0.176867, Final residual = 0.0165925, No Iterations 5
DILUPBiCGStab:  Solving for Uz, Initial residual = 0.694539, Final residual = 0.0432528, No Iterations 5
[INFO] MomentumPredictor: 3924.15 [ms]
[INFO] MatrixAssemblyPI: 574.861 [ms]
[INFO] AdjustPhi: 24.561 [ms]
[INFO] ConstrainPressure: 0.003 [ms]
[INFO] MatrixAssemblyPII: 168.01 [ms]
DICPCG:  Solving for p, Initial residual = 0.962409, Final residual = 9.96809e-05, No Iterations 1196
[INFO] SolveP: 119766 [ms]
time step continuity errors : sum local = 1.63811e-08, global = 1.9885e-22, cumulative = 4.17092e-21
[INFO] ContinuityError: 58.983 [ms]
[INFO] CorrectBoundary: 2.127 [ms]
[INFO] PISOStep: 120780 [ms]
[INFO] MatrixAssemblyPI: 560.498 [ms]
[INFO] AdjustPhi: 23.955 [ms]
[INFO] ConstrainPressure: 0.004 [ms]
[INFO] MatrixAssemblyPII: 166.686 [ms]
DICPCG:  Solving for p, Initial residual = 0.917532, Final residual = 9.84693e-05, No Iterations 1195
[INFO] SolveP: 120075 [ms]
time step continuity errors : sum local = 1.61263e-08, global = 7.14616e-22, cumulative = 4.88554e-21
[INFO] ContinuityError: 58.777 [ms]
[INFO] CorrectBoundary: 1.734 [ms]
[INFO] PISOStep: 121075 [ms]
[INFO] TimeStep: 246354 [ms]
ExecutionTime = 1498.82 s  ClockTime = 1507 s

Time = 0.001

Courant Number mean: 0.0298938 max: 0.491022
[INFO] MatrixAssemblyU: 508.065 [ms]
DILUPBiCGStab:  Solving for Ux, Initial residual = 0.0362471, Final residual = 0.00403717, No Iterations 5
DILUPBiCGStab:  Solving for Uy, Initial residual = 0.170388, Final residual = 0.0143499, No Iterations 5
DILUPBiCGStab:  Solving for Uz, Initial residual = 0.686128, Final residual = 0.039399, No Iterations 5
[INFO] MomentumPredictor: 3928.88 [ms]
[INFO] MatrixAssemblyPI: 574.652 [ms]
[INFO] AdjustPhi: 26.098 [ms]
[INFO] ConstrainPressure: 0.003 [ms]
[INFO] MatrixAssemblyPII: 166.099 [ms]
DICPCG:  Solving for p, Initial residual = 0.960343, Final residual = 9.88632e-05, No Iterations 1183
[INFO] SolveP: 118813 [ms]
time step continuity errors : sum local = 1.87046e-08, global = 1.82264e-21, cumulative = 6.70818e-21
[INFO] ContinuityError: 60.004 [ms]
[INFO] CorrectBoundary: 1.03 [ms]
[INFO] PISOStep: 119829 [ms]
[INFO] MatrixAssemblyPI: 558.638 [ms]
[INFO] AdjustPhi: 25.012 [ms]
[INFO] ConstrainPressure: 0.003 [ms]
[INFO] MatrixAssemblyPII: 166.436 [ms]
DICPCG:  Solving for p, Initial residual = 0.898158, Final residual = 9.94921e-05, No Iterations 1182
[INFO] SolveP: 118794 [ms]
time step continuity errors : sum local = 1.91037e-08, global = 6.27315e-22, cumulative = 7.33549e-21
[INFO] ContinuityError: 59.974 [ms]
[INFO] CorrectBoundary: 0.88 [ms]
[INFO] PISOStep: 119793 [ms]
[INFO] TimeStep: 244121 [ms]
ExecutionTime = 1741.51 s  ClockTime = 1752 s

Time = 0.001125

Courant Number mean: 0.031696 max: 0.696025
[INFO] MatrixAssemblyU: 502.926 [ms]
DILUPBiCGStab:  Solving for Ux, Initial residual = 0.0374912, Final residual = 0.00381905, No Iterations 5
DILUPBiCGStab:  Solving for Uy, Initial residual = 0.187276, Final residual = 0.0147907, No Iterations 5
DILUPBiCGStab:  Solving for Uz, Initial residual = 0.692678, Final residual = 0.039002, No Iterations 5
[INFO] MomentumPredictor: 3931.93 [ms]
[INFO] MatrixAssemblyPI: 575.703 [ms]
[INFO] AdjustPhi: 24.738 [ms]
[INFO] ConstrainPressure: 0.002 [ms]
[INFO] MatrixAssemblyPII: 166.739 [ms]
DICPCG:  Solving for p, Initial residual = 0.968171, Final residual = 9.99916e-05, No Iterations 1173
[INFO] SolveP: 117503 [ms]
time step continuity errors : sum local = 2.16761e-08, global = 1.72247e-21, cumulative = 9.05796e-21
[INFO] ContinuityError: 60.163 [ms]
[INFO] CorrectBoundary: 1.127 [ms]
[INFO] PISOStep: 118521 [ms]
[INFO] MatrixAssemblyPI: 557.982 [ms]
[INFO] AdjustPhi: 25.638 [ms]
[INFO] ConstrainPressure: 0.003 [ms]
[INFO] MatrixAssemblyPII: 164.509 [ms]
DICPCG:  Solving for p, Initial residual = 0.918577, Final residual = 9.89719e-05, No Iterations 1171
[INFO] SolveP: 117559 [ms]
time step continuity errors : sum local = 2.1431e-08, global = 7.42588e-22, cumulative = 9.80055e-21
[INFO] ContinuityError: 60.06 [ms]
[INFO] CorrectBoundary: 1.22 [ms]
[INFO] PISOStep: 118558 [ms]
[INFO] TimeStep: 241576 [ms]
ExecutionTime = 1981.73 s  ClockTime = 1993 s

Time = 0.00125

Courant Number mean: 0.0331095 max: 0.507105
[INFO] MatrixAssemblyU: 510.165 [ms]
DILUPBiCGStab:  Solving for Ux, Initial residual = 0.0408548, Final residual = 0.00387979, No Iterations 5
DILUPBiCGStab:  Solving for Uy, Initial residual = 0.186066, Final residual = 0.0130677, No Iterations 5
DILUPBiCGStab:  Solving for Uz, Initial residual = 0.701265, Final residual = 0.0377146, No Iterations 5
[INFO] MomentumPredictor: 3926.73 [ms]
[INFO] MatrixAssemblyPI: 574.859 [ms]
[INFO] AdjustPhi: 24.536 [ms]
[INFO] ConstrainPressure: 0.002 [ms]
[INFO] MatrixAssemblyPII: 166.063 [ms]
DICPCG:  Solving for p, Initial residual = 0.967547, Final residual = 9.94254e-05, No Iterations 1172
[INFO] SolveP: 117425 [ms]
time step continuity errors : sum local = 2.50972e-08, global = 7.80393e-22, cumulative = 1.05809e-20
[INFO] ContinuityError: 59.382 [ms]
[INFO] CorrectBoundary: 0.789 [ms]
[INFO] PISOStep: 118440 [ms]
[INFO] MatrixAssemblyPI: 557.334 [ms]
[INFO] AdjustPhi: 25.233 [ms]
[INFO] ConstrainPressure: 0.004 [ms]
[INFO] MatrixAssemblyPII: 166.03 [ms]
DICPCG:  Solving for p, Initial residual = 0.903711, Final residual = 9.92484e-05, No Iterations 1170
[INFO] SolveP: 117327 [ms]
time step continuity errors : sum local = 2.53922e-08, global = 9.11198e-22, cumulative = 1.14921e-20
[INFO] ContinuityError: 60.491 [ms]
[INFO] CorrectBoundary: 1.142 [ms]
[INFO] PISOStep: 118325 [ms]
[INFO] TimeStep: 241264 [ms]
ExecutionTime = 2221.57 s  ClockTime = 2234 s

Time = 0.001375

Courant Number mean: 0.0347081 max: 0.825565
[INFO] MatrixAssemblyU: 514.772 [ms]
DILUPBiCGStab:  Solving for Ux, Initial residual = 0.0436246, Final residual = 0.00371611, No Iterations 5
DILUPBiCGStab:  Solving for Uy, Initial residual = 0.209824, Final residual = 0.0141141, No Iterations 5
DILUPBiCGStab:  Solving for Uz, Initial residual = 0.706869, Final residual = 0.0380577, No Iterations 5
[INFO] MomentumPredictor: 3922.55 [ms]
[INFO] MatrixAssemblyPI: 575.05 [ms]
[INFO] AdjustPhi: 26.207 [ms]
[INFO] ConstrainPressure: 0.003 [ms]
[INFO] MatrixAssemblyPII: 166.471 [ms]
DICPCG:  Solving for p, Initial residual = 0.973115, Final residual = 9.90001e-05, No Iterations 1165
[INFO] SolveP: 116689 [ms]
time step continuity errors : sum local = 2.90118e-08, global = 3.11149e-22, cumulative = 1.18033e-20
[INFO] ContinuityError: 59.13 [ms]
[INFO] CorrectBoundary: 0.849 [ms]
[INFO] PISOStep: 117705 [ms]
[INFO] MatrixAssemblyPI: 558.808 [ms]
[INFO] AdjustPhi: 24.654 [ms]
[INFO] ConstrainPressure: 0.003 [ms]
[INFO] MatrixAssemblyPII: 166.3 [ms]
DICPCG:  Solving for p, Initial residual = 0.919397, Final residual = 9.97485e-05, No Iterations 1163
[INFO] SolveP: 116603 [ms]
time step continuity errors : sum local = 2.92564e-08, global = 5.35431e-22, cumulative = 1.23387e-20
[INFO] ContinuityError: 60.495 [ms]
[INFO] CorrectBoundary: 1.409 [ms]
[INFO] PISOStep: 117604 [ms]
[INFO] TimeStep: 239808 [ms]
ExecutionTime = 2460.03 s  ClockTime = 2474 s

Time = 0.0015

Courant Number mean: 0.0359085 max: 0.597536
[INFO] MatrixAssemblyU: 509.884 [ms]
DILUPBiCGStab:  Solving for Ux, Initial residual = 0.0490664, Final residual = 0.00391474, No Iterations 5
DILUPBiCGStab:  Solving for Uy, Initial residual = 0.214139, Final residual = 0.0129346, No Iterations 5
DILUPBiCGStab:  Solving for Uz, Initial residual = 0.719693, Final residual = 0.0371465, No Iterations 5
[INFO] MomentumPredictor: 3925.39 [ms]
[INFO] MatrixAssemblyPI: 575.256 [ms]
[INFO] AdjustPhi: 24.474 [ms]
[INFO] ConstrainPressure: 0.003 [ms]
[INFO] MatrixAssemblyPII: 166.635 [ms]
DICPCG:  Solving for p, Initial residual = 0.973352, Final residual = 9.87517e-05, No Iterations 1170
[INFO] SolveP: 117563 [ms]
time step continuity errors : sum local = 3.39303e-08, global = 1.96761e-21, cumulative = 1.43063e-20
[INFO] ContinuityError: 59.748 [ms]
[INFO] CorrectBoundary: 0.861 [ms]
[INFO] PISOStep: 118578 [ms]
[INFO] MatrixAssemblyPI: 559.247 [ms]
[INFO] AdjustPhi: 24.63 [ms]
[INFO] ConstrainPressure: 0.003 [ms]
[INFO] MatrixAssemblyPII: 166.213 [ms]
DICPCG:  Solving for p, Initial residual = 0.90854, Final residual = 9.93067e-05, No Iterations 1168
[INFO] SolveP: 117002 [ms]
time step continuity errors : sum local = 3.45416e-08, global = 1.0571e-21, cumulative = 1.53634e-20
[INFO] ContinuityError: 59.383 [ms]
[INFO] CorrectBoundary: 0.727 [ms]
[INFO] PISOStep: 118001 [ms]
[INFO] TimeStep: 241076 [ms]
ExecutionTime = 2699.73 s  ClockTime = 2715 s

Time = 0.001625

Courant Number mean: 0.0374033 max: 1.14772
[INFO] MatrixAssemblyU: 510.386 [ms]
DILUPBiCGStab:  Solving for Ux, Initial residual = 0.0537284, Final residual = 0.00386245, No Iterations 5
DILUPBiCGStab:  Solving for Uy, Initial residual = 0.242658, Final residual = 0.0142571, No Iterations 5
DILUPBiCGStab:  Solving for Uz, Initial residual = 0.722266, Final residual = 0.0369965, No Iterations 5
[INFO] MomentumPredictor: 3929.35 [ms]
[INFO] MatrixAssemblyPI: 574.884 [ms]
[INFO] AdjustPhi: 25.104 [ms]
[INFO] ConstrainPressure: 0.003 [ms]
[INFO] MatrixAssemblyPII: 166.698 [ms]
DICPCG:  Solving for p, Initial residual = 0.976908, Final residual = 9.79277e-05, No Iterations 1170
[INFO] SolveP: 117083 [ms]
time step continuity errors : sum local = 3.94335e-08, global = 3.11938e-22, cumulative = 1.56754e-20
[INFO] ContinuityError: 59.481 [ms]
[INFO] CorrectBoundary: 0.88 [ms]
[INFO] PISOStep: 118098 [ms]
[INFO] MatrixAssemblyPI: 557.613 [ms]
[INFO] AdjustPhi: 26.048 [ms]
[INFO] ConstrainPressure: 0.004 [ms]
[INFO] MatrixAssemblyPII: 163.422 [ms]
DICPCG:  Solving for p, Initial residual = 0.920141, Final residual = 9.86581e-05, No Iterations 1168
[INFO] SolveP: 117378 [ms]
time step continuity errors : sum local = 3.98334e-08, global = 4.53153e-22, cumulative = 1.61285e-20
[INFO] ContinuityError: 59.273 [ms]
[INFO] CorrectBoundary: 1.383 [ms]
[INFO] PISOStep: 118376 [ms]
[INFO] TimeStep: 240976 [ms]
ExecutionTime = 2939.34 s  ClockTime = 2956 s

Time = 0.00175

Courant Number mean: 0.038467 max: 1.02089
[INFO] MatrixAssemblyU: 509.863 [ms]
DILUPBiCGStab:  Solving for Ux, Initial residual = 0.0616956, Final residual = 0.00415513, No Iterations 5
DILUPBiCGStab:  Solving for Uy, Initial residual = 0.253077, Final residual = 0.0136019, No Iterations 5
DILUPBiCGStab:  Solving for Uz, Initial residual = 0.733247, Final residual = 0.0363503, No Iterations 5
[INFO] MomentumPredictor: 3927.67 [ms]
[INFO] MatrixAssemblyPI: 576.187 [ms]
[INFO] AdjustPhi: 23.572 [ms]
[INFO] ConstrainPressure: 0.003 [ms]
[INFO] MatrixAssemblyPII: 166.529 [ms]
DICPCG:  Solving for p, Initial residual = 0.977599, Final residual = 9.80069e-05, No Iterations 1172
[INFO] SolveP: 117712 [ms]
time step continuity errors : sum local = 4.65406e-08, global = -1.81863e-22, cumulative = 1.59467e-20
[INFO] ContinuityError: 60.037 [ms]
[INFO] CorrectBoundary: 1.776 [ms]
[INFO] PISOStep: 118731 [ms]
[INFO] MatrixAssemblyPI: 557.564 [ms]
[INFO] AdjustPhi: 25.763 [ms]
[INFO] ConstrainPressure: 0.003 [ms]
[INFO] MatrixAssemblyPII: 165.2 [ms]
DICPCG:  Solving for p, Initial residual = 0.912618, Final residual = 9.84047e-05, No Iterations 1170
[INFO] SolveP: 117335 [ms]
time step continuity errors : sum local = 4.72555e-08, global = 7.45251e-22, cumulative = 1.66919e-20
[INFO] ContinuityError: 60.216 [ms]
[INFO] CorrectBoundary: 1.243 [ms]
[INFO] PISOStep: 118334 [ms]
[INFO] TimeStep: 241565 [ms]
ExecutionTime = 3179.49 s  ClockTime = 3198 s

Time = 0.001875

Courant Number mean: 0.0399316 max: 1.68234
[INFO] MatrixAssemblyU: 510.036 [ms]
DILUPBiCGStab:  Solving for Ux, Initial residual = 0.0687071, Final residual = 0.00425452, No Iterations 5
DILUPBiCGStab:  Solving for Uy, Initial residual = 0.285305, Final residual = 0.0150417, No Iterations 5
DILUPBiCGStab:  Solving for Uz, Initial residual = 0.735025, Final residual = 0.0363612, No Iterations 5
[INFO] MomentumPredictor: 3923.83 [ms]
[INFO] MatrixAssemblyPI: 575.771 [ms]
[INFO] AdjustPhi: 23.981 [ms]
[INFO] ConstrainPressure: 0.003 [ms]
[INFO] MatrixAssemblyPII: 165.547 [ms]
DICPCG:  Solving for p, Initial residual = 0.979703, Final residual = 9.92889e-05, No Iterations 1168
[INFO] SolveP: 116991 [ms]
time step continuity errors : sum local = 5.56049e-08, global = 3.35481e-21, cumulative = 2.00467e-20
[INFO] ContinuityError: 59.361 [ms]
[INFO] CorrectBoundary: 1.234 [ms]
[INFO] PISOStep: 118005 [ms]
[INFO] MatrixAssemblyPI: 558.371 [ms]
[INFO] AdjustPhi: 25.538 [ms]
[INFO] ConstrainPressure: 0.003 [ms]
[INFO] MatrixAssemblyPII: 163.803 [ms]
DICPCG:  Solving for p, Initial residual = 0.92062, Final residual = 9.93728e-05, No Iterations 1166
[INFO] SolveP: 116975 [ms]
time step continuity errors : sum local = 5.58851e-08, global = 8.18573e-22, cumulative = 2.08653e-20
[INFO] ContinuityError: 60.172 [ms]
[INFO] CorrectBoundary: 1.052 [ms]
[INFO] PISOStep: 117977 [ms]
[INFO] TimeStep: 240478 [ms]
ExecutionTime = 3418.57 s  ClockTime = 3438 s

Time = 0.002

Courant Number mean: 0.0409293 max: 1.71621
[INFO] MatrixAssemblyU: 512.651 [ms]
DILUPBiCGStab:  Solving for Ux, Initial residual = 0.0801216, Final residual = 0.00466702, No Iterations 5
DILUPBiCGStab:  Solving for Uy, Initial residual = 0.302004, Final residual = 0.0148274, No Iterations 5
DILUPBiCGStab:  Solving for Uz, Initial residual = 0.744637, Final residual = 0.036103, No Iterations 5
[INFO] MomentumPredictor: 3926.33 [ms]
[INFO] MatrixAssemblyPI: 575.35 [ms]
[INFO] AdjustPhi: 24.302 [ms]
[INFO] ConstrainPressure: 0.002 [ms]
[INFO] MatrixAssemblyPII: 166.238 [ms]
DICPCG:  Solving for p, Initial residual = 0.980818, Final residual = 9.83442e-05, No Iterations 1173
[INFO] SolveP: 117705 [ms]
time step continuity errors : sum local = 6.52132e-08, global = -1.87204e-21, cumulative = 1.89933e-20
[INFO] ContinuityError: 58.677 [ms]
[INFO] CorrectBoundary: 0.795 [ms]
[INFO] PISOStep: 118720 [ms]
[INFO] MatrixAssemblyPI: 558.272 [ms]
[INFO] AdjustPhi: 24.487 [ms]
[INFO] ConstrainPressure: 0.002 [ms]
[INFO] MatrixAssemblyPII: 164.124 [ms]
DICPCG:  Solving for p, Initial residual = 0.915626, Final residual = 9.67033e-05, No Iterations 1171
[INFO] SolveP: 117546 [ms]
time step continuity errors : sum local = 6.47951e-08, global = 8.94131e-22, cumulative = 1.98874e-20
[INFO] ContinuityError: 60.45 [ms]
[INFO] CorrectBoundary: 1.254 [ms]
[INFO] PISOStep: 118544 [ms]
[INFO] TimeStep: 241765 [ms]
ExecutionTime = 3658.93 s  ClockTime = 3680 s

Time = 0.002125

Courant Number mean: 0.042432 max: 2.54807
[INFO] MatrixAssemblyU: 512.496 [ms]
DILUPBiCGStab:  Solving for Ux, Initial residual = 0.0901717, Final residual = 0.0049427, No Iterations 5
DILUPBiCGStab:  Solving for Uy, Initial residual = 0.337274, Final residual = 0.0163763, No Iterations 5
DILUPBiCGStab:  Solving for Uz, Initial residual = 0.744156, Final residual = 0.0358145, No Iterations 5
[INFO] MomentumPredictor: 3924.61 [ms]
[INFO] MatrixAssemblyPI: 576.037 [ms]
[INFO] AdjustPhi: 24.143 [ms]
[INFO] ConstrainPressure: 0.003 [ms]
[INFO] MatrixAssemblyPII: 166.052 [ms]
DICPCG:  Solving for p, Initial residual = 0.981884, Final residual = 9.88048e-05, No Iterations 1172
[INFO] SolveP: 117454 [ms]
time step continuity errors : sum local = 7.78504e-08, global = -1.36472e-21, cumulative = 1.85227e-20
[INFO] ContinuityError: 58.68 [ms]
[INFO] CorrectBoundary: 0.932 [ms]
[INFO] PISOStep: 118469 [ms]
[INFO] MatrixAssemblyPI: 557.616 [ms]
[INFO] AdjustPhi: 25.081 [ms]
[INFO] ConstrainPressure: 0.003 [ms]
[INFO] MatrixAssemblyPII: 165.029 [ms]
DICPCG:  Solving for p, Initial residual = 0.920598, Final residual = 9.93798e-05, No Iterations 1170
[INFO] SolveP: 117475 [ms]
time step continuity errors : sum local = 7.87438e-08, global = 1.25318e-21, cumulative = 1.97758e-20
[INFO] ContinuityError: 59.089 [ms]
[INFO] CorrectBoundary: 1.504 [ms]
[INFO] PISOStep: 118472 [ms]
[INFO] TimeStep: 241441 [ms]
ExecutionTime = 3898.95 s  ClockTime = 3922 s

Time = 0.00225

Courant Number mean: 0.043444 max: 2.85574
[INFO] MatrixAssemblyU: 509.354 [ms]
DILUPBiCGStab:  Solving for Ux, Initial residual = 0.106524, Final residual = 0.00554083, No Iterations 5
DILUPBiCGStab:  Solving for Uy, Initial residual = 0.360186, Final residual = 0.0165345, No Iterations 5
DILUPBiCGStab:  Solving for Uz, Initial residual = 0.751471, Final residual = 0.0355558, No Iterations 5
[INFO] MomentumPredictor: 3922.93 [ms]
[INFO] MatrixAssemblyPI: 575.638 [ms]
[INFO] AdjustPhi: 24.29 [ms]
[INFO] ConstrainPressure: 0.003 [ms]
[INFO] MatrixAssemblyPII: 165.819 [ms]
DICPCG:  Solving for p, Initial residual = 0.983086, Final residual = 9.76772e-05, No Iterations 1172
[INFO] SolveP: 117372 [ms]
time step continuity errors : sum local = 9.18396e-08, global = -1.11681e-20, cumulative = 8.60771e-21
[INFO] ContinuityError: 58.138 [ms]
[INFO] CorrectBoundary: 1.073 [ms]
[INFO] PISOStep: 118387 [ms]
[INFO] MatrixAssemblyPI: 557.839 [ms]
[INFO] AdjustPhi: 24.783 [ms]
[INFO] ConstrainPressure: 0.003 [ms]
[INFO] MatrixAssemblyPII: 164.207 [ms]
DICPCG:  Solving for p, Initial residual = 0.917619, Final residual = 9.91723e-05, No Iterations 1170
[INFO] SolveP: 117182 [ms]
time step continuity errors : sum local = 9.41697e-08, global = 7.65918e-23, cumulative = 8.68431e-21
[INFO] ContinuityError: 60.09 [ms]
[INFO] CorrectBoundary: 0.736 [ms]
[INFO] PISOStep: 118180 [ms]
[INFO] TimeStep: 241063 [ms]
ExecutionTime = 4138.62 s  ClockTime = 4163 s

Time = 0.002375

Courant Number mean: 0.0450682 max: 3.95879
[INFO] MatrixAssemblyU: 511.143 [ms]
DILUPBiCGStab:  Solving for Ux, Initial residual = 0.12049, Final residual = 0.0060182, No Iterations 5
DILUPBiCGStab:  Solving for Uy, Initial residual = 0.396803, Final residual = 0.0181639, No Iterations 5
DILUPBiCGStab:  Solving for Uz, Initial residual = 0.750369, Final residual = 0.035431, No Iterations 5
[INFO] MomentumPredictor: 3927.72 [ms]
[INFO] MatrixAssemblyPI: 574.579 [ms]
[INFO] AdjustPhi: 25.379 [ms]
[INFO] ConstrainPressure: 0.003 [ms]
[INFO] MatrixAssemblyPII: 166.642 [ms]
DICPCG:  Solving for p, Initial residual = 0.983523, Final residual = 9.98611e-05, No Iterations 1180
[INFO] SolveP: 118309 [ms]
time step continuity errors : sum local = 1.1246e-07, global = -2.28819e-22, cumulative = 8.45549e-21
[INFO] ContinuityError: 58.603 [ms]
[INFO] CorrectBoundary: 0.981 [ms]
[INFO] PISOStep: 119325 [ms]
[INFO] MatrixAssemblyPI: 557.097 [ms]
[INFO] AdjustPhi: 25.732 [ms]
[INFO] ConstrainPressure: 0.003 [ms]
[INFO] MatrixAssemblyPII: 164.026 [ms]
DICPCG:  Solving for p, Initial residual = 0.920837, Final residual = 9.99453e-05, No Iterations 1174
[INFO] SolveP: 117735 [ms]
time step continuity errors : sum local = 1.13314e-07, global = -4.85193e-22, cumulative = 7.97029e-21
[INFO] ContinuityError: 59.818 [ms]
[INFO] CorrectBoundary: 0.985 [ms]
[INFO] PISOStep: 118733 [ms]
[INFO] TimeStep: 242559 [ms]
ExecutionTime = 4379.77 s  ClockTime = 4405 s

Time = 0.0025

Courant Number mean: 0.0462035 max: 4.70251
[INFO] MatrixAssemblyU: 510.387 [ms]
DILUPBiCGStab:  Solving for Ux, Initial residual = 0.143516, Final residual = 0.00688183, No Iterations 5
DILUPBiCGStab:  Solving for Uy, Initial residual = 0.424331, Final residual = 0.018627, No Iterations 5
DILUPBiCGStab:  Solving for Uz, Initial residual = 0.755029, Final residual = 0.0349812, No Iterations 5
[INFO] MomentumPredictor: 3928.95 [ms]
[INFO] MatrixAssemblyPI: 575.697 [ms]
[INFO] AdjustPhi: 23.791 [ms]
[INFO] ConstrainPressure: 0.003 [ms]
[INFO] MatrixAssemblyPII: 166.028 [ms]
DICPCG:  Solving for p, Initial residual = 0.984381, Final residual = 9.97611e-05, No Iterations 1197
[INFO] SolveP: 119878 [ms]
time step continuity errors : sum local = 1.34843e-07, global = 7.34159e-21, cumulative = 1.53119e-20
[INFO] ContinuityError: 59.158 [ms]
[INFO] CorrectBoundary: 1.159 [ms]
[INFO] PISOStep: 120894 [ms]
[INFO] MatrixAssemblyPI: 558.704 [ms]
[INFO] AdjustPhi: 24.385 [ms]
[INFO] ConstrainPressure: 0.003 [ms]
[INFO] MatrixAssemblyPII: 164.325 [ms]
DICPCG:  Solving for p, Initial residual = 0.918934, Final residual = 9.95599e-05, No Iterations 1174
[INFO] SolveP: 117722 [ms]
time step continuity errors : sum local = 1.3588e-07, global = 5.13059e-22, cumulative = 1.58249e-20
[INFO] ContinuityError: 59.755 [ms]
[INFO] CorrectBoundary: 1.158 [ms]
[INFO] PISOStep: 118720 [ms]
[INFO] TimeStep: 244115 [ms]
ExecutionTime = 4622.45 s  ClockTime = 4649 s

End

Finalising parallel run
