/*---------------------------------------------------------------------------*\
| =========                 |                                                 |
| \\      /  F ield         | OpenFOAM: The Open Source CFD Toolbox           |
|  \\    /   O peration     | Version:  2306                                  |
|   \\  /    A nd           | Website:  www.openfoam.com                      |
|    \\/     M anipulation  |                                                 |
\*---------------------------------------------------------------------------*/
Build  : c423ebec-20231012 OPENFOAM=2306 version=v2306
Arch   : "LSB;label=32;scalar=64"
Exec   : simpleFoam -parallel -case /hkfs/work/workspace/scratch/eq4036-windsorbody_setup/workspace/422e20cc7cfe7d3b01038b9359c053b2/case
Date   : Feb 16 2024
Time   : 20:32:41
Host   : hkn0615.localdomain
PID    : 1737232
I/O    : uncollated
Case   : /hkfs/work/workspace/scratch/eq4036-windsorbody_setup/workspace/422e20cc7cfe7d3b01038b9359c053b2/case
nProcs : 16
Hosts  :
(
    (hkn0615.localdomain 8)
    (hkn0616.localdomain 8)
)
Pstream initialized with:
    floatTransfer      : false
    nProcsSimpleSum    : 0
    nonBlockingExchange: 0 (tuning: 0)
    exchange algorithm : -1
    commsType          : nonBlocking
    polling iterations : 0
trapFpe: Floating point exception trapping enabled (FOAM_SIGFPE).
fileModificationChecking : Monitoring run-time modified files using timeStampMaster (fileModificationSkew 5, maxFileModificationPolls 20)
allowSystemOperations : Allowing user-supplied system call operations

// * * * * * * * * * * * * * * * * * * * * * * * * * * * * * * * * * * * * * //
Create time

--> FOAM Warning : 
    From void* Foam::dlLibraryTable::openLibrary(const Foam::fileName&, bool)
    in file db/dynamicLibrary/dlLibraryTable/dlLibraryTable.C at line 188
    Could not load "libpetscFoam.so"
libpetscFoam.so: cannot open shared object file: No such file or directory
Create mesh for time = 0


SIMPLE: convergence criteria
    field p	 tolerance 1e-08
    field U	 tolerance 1e-08
    field k	 tolerance 1e-08
    field omega	 tolerance 1e-08
    field nuTilda	 tolerance 1e-08

Reading field p

Reading field U

Reading/calculating face flux field phi

Selecting incompressible transport model Newtonian
Selecting turbulence model type RAS
Selecting RAS turbulence model SpalartAllmaras
Selecting patchDistMethod meshWave
ft2 term: inactive
RAS
{
    RASModel        SpalartAllmaras;
    turbulence      on;
    printCoeffs     on;
    sigmaNut        0.66666;
    kappa           0.41;
    Cb1             0.1355;
    Cb2             0.622;
    Cw2             0.3;
    Cw3             2;
    Cv1             7.1;
    Cs              0.3;
    ck              0.07000000000000001;
    ft2             false;
    Ct3             1.2;
    Ct4             0.5;
}

No MRF models present

Creating finite volume options from "system/fvOptions"

Selecting finite volume options type velocityDampingConstraint
    Source: velocityDamping
    - selecting all cells
    - selected 6307136 cell(s) with volume 27.82583051608782

Starting time loop

--> FOAM Warning : 
    From bool Foam::functionObjectList::read()
    in file db/functionObjects/functionObjectList/functionObjectList.C at line 1035
    Reading "system/controlDict" at line 2 to 41
    Entry 'lref' is not a dictionary
--> FOAM Warning : 
    From bool Foam::functionObjectList::read()
    in file db/functionObjects/functionObjectList/functionObjectList.C at line 1035
    Reading "system/controlDict" at line 2 to 41
    Entry 'Aref' is not a dictionary
--> FOAM Warning : 
    From bool Foam::functionObjectList::read()
    in file db/functionObjects/functionObjectList/functionObjectList.C at line 1035
    Reading "system/controlDict" at line 2 to 41
    Entry 'yawAngle' is not a dictionary
--> FOAM Warning : 
    From bool Foam::functionObjectList::read()
    in file db/functionObjects/functionObjectList/functionObjectList.C at line 1035
    Reading "system/controlDict" at line 2 to 41
    Entry 'lDomain' is not a dictionary
--> FOAM Warning : 
    From bool Foam::functionObjectList::read()
    in file db/functionObjects/functionObjectList/functionObjectList.C at line 1035
    Reading "system/controlDict" at line 2 to 41
    Entry 'bDomain' is not a dictionary
--> FOAM Warning : 
    From bool Foam::functionObjectList::read()
    in file db/functionObjects/functionObjectList/functionObjectList.C at line 1035
    Reading "system/controlDict" at line 2 to 41
    Entry 'hDomain' is not a dictionary
--> FOAM Warning : 
    From bool Foam::functionObjectList::read()
    in file db/functionObjects/functionObjectList/functionObjectList.C at line 1035
    Reading "system/controlDict" at line 2 to 41
    Entry 'xCenter' is not a dictionary
--> FOAM Warning : 
    From bool Foam::functionObjectList::read()
    in file db/functionObjects/functionObjectList/functionObjectList.C at line 1035
    Reading "system/controlDict" at line 2 to 41
    Entry 'yCenter' is not a dictionary
--> FOAM Warning : 
    From bool Foam::functionObjectList::read()
    in file db/functionObjects/functionObjectList/functionObjectList.C at line 1035
    Reading "system/controlDict" at line 2 to 41
    Entry 'zCenter' is not a dictionary
--> FOAM Warning : 
    From bool Foam::functionObjectList::read()
    in file db/functionObjects/functionObjectList/functionObjectList.C at line 1035
    Reading "system/controlDict" at line 2 to 41
    Entry 'inletPatch' is not a dictionary
--> FOAM Warning : 
    From bool Foam::functionObjectList::read()
    in file db/functionObjects/functionObjectList/functionObjectList.C at line 1035
    Reading "system/controlDict" at line 2 to 41
    Entry 'outletPatch' is not a dictionary
--> FOAM Warning : 
    From bool Foam::functionObjectList::read()
    in file db/functionObjects/functionObjectList/functionObjectList.C at line 1035
    Reading "system/controlDict" at line 2 to 41
    Entry 'wallPatches' is not a dictionary
--> FOAM Warning : 
    From bool Foam::functionObjectList::read()
    in file db/functionObjects/functionObjectList/functionObjectList.C at line 1035
    Reading "system/controlDict" at line 2 to 41
    Entry 'forcesWallPatches' is not a dictionary
--> FOAM Warning : 
    From bool Foam::functionObjectList::read()
    in file db/functionObjects/functionObjectList/functionObjectList.C at line 1035
    Reading "system/controlDict" at line 2 to 41
    Entry 'symmPatches' is not a dictionary
--> FOAM Warning : 
    From bool Foam::functionObjectList::read()
    in file db/functionObjects/functionObjectList/functionObjectList.C at line 1035
    Reading "system/controlDict" at line 2 to 41
    Entry 'Uinf' is not a dictionary
--> FOAM Warning : 
    From bool Foam::functionObjectList::read()
    in file db/functionObjects/functionObjectList/functionObjectList.C at line 1035
    Reading "system/controlDict" at line 2 to 41
    Entry 'UinfMag' is not a dictionary
--> FOAM Warning : 
    From bool Foam::functionObjectList::read()
    in file db/functionObjects/functionObjectList/functionObjectList.C at line 1035
    Reading "system/controlDict" at line 2 to 41
    Entry 'nu' is not a dictionary
--> FOAM Warning : 
    From bool Foam::functionObjectList::read()
    in file db/functionObjects/functionObjectList/functionObjectList.C at line 1035
    Reading "system/controlDict" at line 2 to 41
    Entry 'pref' is not a dictionary
--> FOAM Warning : 
    From bool Foam::functionObjectList::read()
    in file db/functionObjects/functionObjectList/functionObjectList.C at line 1035
    Reading "system/controlDict" at line 2 to 41
    Entry 'viscRatio' is not a dictionary
--> FOAM Warning : 
    From bool Foam::functionObjectList::read()
    in file db/functionObjects/functionObjectList/functionObjectList.C at line 1035
    Reading "system/controlDict" at line 2 to 41
    Entry 'Tu' is not a dictionary
--> FOAM Warning : 
    From bool Foam::functionObjectList::read()
    in file db/functionObjects/functionObjectList/functionObjectList.C at line 1035
    Reading "system/controlDict" at line 2 to 41
    Entry 'LESturbModel' is not a dictionary
--> FOAM Warning : 
    From bool Foam::functionObjectList::read()
    in file db/functionObjects/functionObjectList/functionObjectList.C at line 1035
    Reading "system/controlDict" at line 2 to 41
    Entry 'RASturbModel' is not a dictionary
--> FOAM Warning : 
    From bool Foam::functionObjectList::read()
    in file db/functionObjects/functionObjectList/functionObjectList.C at line 1035
    Reading "system/controlDict" at line 2 to 41
    Entry 'deltaTurb' is not a dictionary
--> FOAM Warning : 
    From bool Foam::functionObjectList::read()
    in file db/functionObjects/functionObjectList/functionObjectList.C at line 1035
    Reading "system/controlDict" at line 2 to 41
    Entry 'dt' is not a dictionary
--> FOAM Warning : 
    From bool Foam::functionObjectList::read()
    in file db/functionObjects/functionObjectList/functionObjectList.C at line 1035
    Reading "system/controlDict" at line 2 to 41
    Entry 'tAvg' is not a dictionary
--> FOAM Warning : 
    From bool Foam::functionObjectList::read()
    in file db/functionObjects/functionObjectList/functionObjectList.C at line 1035
    Reading "system/controlDict" at line 2 to 41
    Entry 'tEnd' is not a dictionary
--> FOAM Warning : 
    From bool Foam::functionObjectList::read()
    in file db/functionObjects/functionObjectList/functionObjectList.C at line 1035
    Reading "system/controlDict" at line 2 to 41
    Entry 'writeInterval_' is not a dictionary
--> FOAM Warning : 
    From bool Foam::functionObjectList::read()
    in file db/functionObjects/functionObjectList/functionObjectList.C at line 1035
    Reading "system/controlDict" at line 2 to 41
    Entry 'nCores' is not a dictionary
--> FOAM Warning : 
    From bool Foam::functionObjectList::read()
    in file db/functionObjects/functionObjectList/functionObjectList.C at line 1035
    Reading "system/controlDict" at line 2 to 41
    Entry 'interpScheme' is not a dictionary
--> FOAM Warning : 
    From bool Foam::functionObjectList::read()
    in file db/functionObjects/functionObjectList/functionObjectList.C at line 1035
    Reading "system/controlDict" at line 2 to 41
    Entry 'probeField' is not a dictionary
wallShearStress wallShearStress:
    processing wall patches: 
        Windsor_Body
        CFDWT_Floor
        Windsor_Pins
        Windsor_Base

pressure calc_cp:
    Operating mode: staticCoeff
    Not including hydrostatic effects

forceCoeffs forceCoeffsAll:
    rho: rhoInf
    Freestream density (rhoInf) set to 1
    Not including porosity effects
    magUInf: 40
    lRef   : 0.6375
    Aref   : 0.1124
    rhoInf : 1
    Selecting all coefficients
    - Drag force: Cd
    - Drag force front: Cd(f)
    - Drag force rear: Cd(r)
    - Lift force: Cl
    - Lift force front: Cl(f)
    - Lift force rear: Cl(r)
    - Pitch moment: CmPitch
    - Roll moment: CmRoll
    - Yaw moment: CmYaw
    - Side force: Cs
    - Side force front: Cs(f)
    - Side force rear: Cs(r)


forceCoeffs dragCoeffBase:
    rho: rhoInf
    Freestream density (rhoInf) set to 1
    Not including porosity effects
    magUInf: 40
    lRef   : 0.6375
    Aref   : 0.1124
    rhoInf : 1
    Selecting coefficients:
    - Drag force: Cd


Time = 1

velocityDampingConstraint velocityDamping damped 0 (0%) of cells, with max limit 300
smoothSolver:  Solving for Ux, Initial residual = 0.9999999999988243, Final residual = 0.08530163322974585, No Iterations 3
smoothSolver:  Solving for Uy, Initial residual = 1, Final residual = 0.06552427331911974, No Iterations 6
smoothSolver:  Solving for Uz, Initial residual = 1, Final residual = 0.01751088862397894, No Iterations 2
[OGL LOG][lduLduBase.H:119] Initialising OGL
	OGL commit:  e75313f+
	Branch: dev 
	Build type: Debug
	Ginkgo version: 1.8.0 ( develop)
	Ginkgo commit: sparse-communicator
	MPI is GPU aware: 1
	Forces host buffer based communication: 0
	CPU ranks per GPU: 1
	Matrix format: Coo
	End OGL_INFO
[OGL LOG][Proc: 0]: global_index_init: 4.615 [ms]
[OGL LOG][Proc: 0]p_local_cols: call_init: 1.911 [ms]
[OGL LOG][Proc: 0]p_local_rows: call_init: 0.972 [ms]
[OGL LOG][Proc: 0]p_local_ldu_map: call_init: 0.025 [ms]
[OGL LOG][Proc: 0]p_local_coeffs: call_init: 3.996 [ms]
[OGL LOG][Proc: 0]p_non_local_cols: call_init: 0.719 [ms]
[OGL LOG][Proc: 0]p_non_local_rows: call_init: 0.294 [ms]
[OGL LOG][Proc: 0]p_non_local_ldu_map: call_init: 0.281 [ms]
[OGL LOG][Proc: 0]p_non_local_coeffs: call_init: 0.273 [ms]
[OGL LOG][Proc: 0]p: init_local_sparsity_pattern: 14583.129 [ms]
[OGL LOG][Proc: 0]p: init_non_local_sparsity_pattern: 67.09999999999999 [ms]
[OGL LOG][Proc: 0]p: update_local_matrix_data: 47.681 [ms]
[OGL LOG][Proc: 0]p: update_non_local_matrix_data: 0.5610000000000001 [ms]
[OGL LOG][Proc: 0]device_partition: call_init: 0.166 [ms]
[OGL LOG][Proc: 0]p_matrix: call_init: 44.916 [ms]
[OGL LOG][Proc: 0]p_rhs: call_init: 1.095 [ms]
[OGL LOG][Proc: 0]p_solution: call_init: 1.68 [ms]
[OGL LOG][Preconditioner.H:121] Generate preconditioner BJ MaxBlockSize 1
[OGL LOG][Proc: 0]p: init_precond: 23.23 [ms]
[OGL LOG][StoppingCriterion.H:239] Creating stopping criterion with minIter 0 frequency 1
[OGL LOG][Proc: 0]p: generate_solver: 0.288 [ms]
[OGL LOG][Proc: 0]p: solve: 4686.037 [ms]
[OGL LOG][Proc: 0]p: copy_x_back: 1.601 [ms]
[OGL LOG][lduLduBase.H:330] 
Statistics:
	Time per iteration: 3918 [mu s]
	Time per residual norm calculation: 5630.000000 [mu s]
	Time per iteration and DOF: 0.621201 [ns]
	Retrieve results bandwidth 2.381000 [GByte/s]
[OGL LOG][Proc: 0]p: solve_multi_gpu: 6154.201 [ms]
BJcudaGKOCG:  Solving for p, Initial residual = 1.000000000000128, Final residual = 0.009949830394252544, No Iterations 1196
time step continuity errors : sum local = 0.003615993263971194, global = 6.580699043292099e-05, cumulative = 6.580699043292099e-05
smoothSolver:  Solving for nuTilda, Initial residual = 0.9999999996706443, Final residual = 0.0525528763484612, No Iterations 3
ExecutionTime = 28.72 s  ClockTime = 30 s

--> FOAM Warning : 
    From virtual bool Foam::functionObjects::fieldSelection::checkSelection()
    in file functionObjects/fieldSelections/fieldSelection/fieldSelection.C at line 166
    Field k not found
--> FOAM Warning : 
    From virtual bool Foam::functionObjects::fieldSelection::checkSelection()
    in file functionObjects/fieldSelections/fieldSelection/fieldSelection.C at line 166
    Field gammaInt not found
--> FOAM Warning : 
    From virtual bool Foam::functionObjects::fieldSelection::checkSelection()
    in file functionObjects/fieldSelections/fieldSelection/fieldSelection.C at line 166
    Field omega not found
--> FOAM Warning : 
    From virtual bool Foam::functionObjects::fieldSelection::checkSelection()
    in file functionObjects/fieldSelections/fieldSelection/fieldSelection.C at line 166
    Field ReThetat not found
--> FOAM Warning : 
    From virtual bool Foam::functionObjects::fieldSelection::checkSelection()
    in file functionObjects/fieldSelections/fieldSelection/fieldSelection.C at line 166
    Field epsilon not found
--> FOAM Warning : 
    From virtual bool Foam::functionObjects::solverFieldSelection::updateSelection()
    in file functionObjects/fieldSelections/solverFieldSelection/solverFieldSelection.C at line 85
    Valid solver fields are: 3(U nuTilda p)Time = 2

velocityDampingConstraint velocityDamping damped 0 (0%) of cells, with max limit 300
smoothSolver:  Solving for Ux, Initial residual = 0.4348262808130811, Final residual = 0.02798611999419959, No Iterations 5
smoothSolver:  Solving for Uy, Initial residual = 0.5811600806184568, Final residual = 0.037766277471422, No Iterations 5
smoothSolver:  Solving for Uz, Initial residual = 0.5440213407811488, Final residual = 0.0543915090121515, No Iterations 4
[OGL LOG][Proc: 0]: global_index_init: 0.128 [ms]
[OGL LOG][Proc: 0]p_local_coeffs: call_update: 0.001 [ms]
[OGL LOG][Proc: 0]p_non_local_coeffs: call_update: 0 [ms]
[OGL LOG][Proc: 0]p: update_local_matrix_data: 16.189 [ms]
[OGL LOG][Proc: 0]p: update_non_local_matrix_data: 0.492 [ms]
[OGL LOG][Proc: 0]p_matrix: call_update: 1.87 [ms]
[OGL LOG][Proc: 0]p_rhs: call_update: 0.78 [ms]
[OGL LOG][Preconditioner.H:121] Generate preconditioner BJ MaxBlockSize 1
[OGL LOG][Proc: 0]p: init_precond: 1.782 [ms]
[OGL LOG][StoppingCriterion.H:239] Creating stopping criterion with minIter 0 frequency 1
[OGL LOG][Proc: 0]p: generate_solver: 0.015 [ms]
[OGL LOG][Proc: 0]p: solve: 3582.952 [ms]
[OGL LOG][Proc: 0]p: copy_x_back: 1.325 [ms]
[OGL LOG][lduLduBase.H:330] 
Statistics:
	Time per iteration: 3920 [mu s]
	Time per residual norm calculation: 1271.000000 [mu s]
	Time per iteration and DOF: 0.621518 [ns]
	Retrieve results bandwidth 2.877000 [GByte/s]
[OGL LOG][Proc: 0]p: solve_multi_gpu: 3592.533 [ms]
BJcudaGKOCG:  Solving for p, Initial residual = 0.4312392803809029, Final residual = 0.004267268630554159, No Iterations 914
time step continuity errors : sum local = 0.09310788942718073, global = 0.004790173055931372, cumulative = 0.004855980046364294
smoothSolver:  Solving for nuTilda, Initial residual = 0.2989683785874713, Final residual = 0.01998166666583056, No Iterations 2
ExecutionTime = 34.16 s  ClockTime = 35 s

Time = 3

velocityDampingConstraint velocityDamping damped 4597 (0.07000000000000001%) of cells, with max limit 300
smoothSolver:  Solving for Ux, Initial residual = 0.289825206234073, Final residual = 0.01844359934154605, No Iterations 2
smoothSolver:  Solving for Uy, Initial residual = 0.2830165526672876, Final residual = 0.02621349250242555, No Iterations 4
smoothSolver:  Solving for Uz, Initial residual = 0.2610935448388261, Final residual = 0.02285874419060033, No Iterations 4
[OGL LOG][Proc: 0]: global_index_init: 0.173 [ms]
[OGL LOG][Proc: 0]p_local_coeffs: call_update: 0 [ms]
[OGL LOG][Proc: 0]p_non_local_coeffs: call_update: 0 [ms]
[OGL LOG][Proc: 0]p: update_local_matrix_data: 16.501 [ms]
[OGL LOG][Proc: 0]p: update_non_local_matrix_data: 0.458 [ms]
[OGL LOG][Proc: 0]p_matrix: call_update: 1.827 [ms]
[OGL LOG][Proc: 0]p_rhs: call_update: 0.721 [ms]
[OGL LOG][Preconditioner.H:121] Generate preconditioner BJ MaxBlockSize 1
[OGL LOG][Proc: 0]p: init_precond: 1.777 [ms]
[OGL LOG][StoppingCriterion.H:239] Creating stopping criterion with minIter 548 frequency 11
[OGL LOG][Proc: 0]p: generate_solver: 0.018 [ms]
[OGL LOG][Proc: 0]p: solve: 2771.044 [ms]
[OGL LOG][Proc: 0]p: copy_x_back: 1.306 [ms]
[OGL LOG][lduLduBase.H:330] 
Statistics:
	Time per iteration: 2677 [mu s]
	Time per residual norm calculation: 1258.000000 [mu s]
	Time per iteration and DOF: 0.424440 [ns]
	Retrieve results bandwidth 2.919000 [GByte/s]
[OGL LOG][Proc: 0]p: solve_multi_gpu: 2779.664 [ms]
BJcudaGKOCG:  Solving for p, Initial residual = 0.2594780714831995, Final residual = 0.002389726508854376, No Iterations 1035
time step continuity errors : sum local = 0.02001507404408135, global = -0.0002374900189200627, cumulative = 0.004618490027444231
smoothSolver:  Solving for nuTilda, Initial residual = 0.3314637711828278, Final residual = 0.02751870272396811, No Iterations 1
ExecutionTime = 38.75 s  ClockTime = 40 s

Time = 4

velocityDampingConstraint velocityDamping damped 46 (0%) of cells, with max limit 300
smoothSolver:  Solving for Ux, Initial residual = 0.03602503697330369, Final residual = 0.002946812173163444, No Iterations 4
smoothSolver:  Solving for Uy, Initial residual = 0.05343175816905685, Final residual = 0.004719740986157052, No Iterations 4
smoothSolver:  Solving for Uz, Initial residual = 0.05037184490561188, Final residual = 0.004510469766370347, No Iterations 4
[OGL LOG][Proc: 0]: global_index_init: 0.121 [ms]
[OGL LOG][Proc: 0]p_local_coeffs: call_update: 0 [ms]
[OGL LOG][Proc: 0]p_non_local_coeffs: call_update: 0 [ms]
[OGL LOG][Proc: 0]p: update_local_matrix_data: 15.255 [ms]
[OGL LOG][Proc: 0]p: update_non_local_matrix_data: 0.429 [ms]
[OGL LOG][Proc: 0]p_matrix: call_update: 2.063 [ms]
[OGL LOG][Proc: 0]p_rhs: call_update: 0.5580000000000001 [ms]
[OGL LOG][Preconditioner.H:121] Generate preconditioner BJ MaxBlockSize 1
[OGL LOG][Proc: 0]p: init_precond: 1.586 [ms]
[OGL LOG][StoppingCriterion.H:239] Creating stopping criterion with minIter 621 frequency 14
[OGL LOG][Proc: 0]p: generate_solver: 0.014 [ms]
[OGL LOG][Proc: 0]p: solve: 1690.937 [ms]
[OGL LOG][Proc: 0]p: copy_x_back: 1.376 [ms]
[OGL LOG][lduLduBase.H:330] 
Statistics:
	Time per iteration: 2679 [mu s]
	Time per residual norm calculation: 1261.000000 [mu s]
	Time per iteration and DOF: 0.424757 [ns]
	Retrieve results bandwidth 2.770000 [GByte/s]
[OGL LOG][Proc: 0]p: solve_multi_gpu: 1701.406 [ms]
BJcudaGKOCG:  Solving for p, Initial residual = 0.3752082908048174, Final residual = 0.001500552110556639, No Iterations 631
time step continuity errors : sum local = 0.01856561304757087, global = -0.001868271244368079, cumulative = 0.002750218783076152
smoothSolver:  Solving for nuTilda, Initial residual = 0.1522726537405116, Final residual = 0.006646683849526366, No Iterations 3
ExecutionTime = 42.3 s  ClockTime = 43 s

Time = 5

velocityDampingConstraint velocityDamping damped 1383 (0.02%) of cells, with max limit 300
smoothSolver:  Solving for Ux, Initial residual = 0.1980727013438808, Final residual = 0.0151368880947375, No Iterations 3
smoothSolver:  Solving for Uy, Initial residual = 0.2652847792757796, Final residual = 0.02129249923001107, No Iterations 4
smoothSolver:  Solving for Uz, Initial residual = 0.2259889224113871, Final residual = 0.01710663453430359, No Iterations 4
[OGL LOG][Proc: 0]: global_index_init: 0.226 [ms]
[OGL LOG][Proc: 0]p_local_coeffs: call_update: 0 [ms]
[OGL LOG][Proc: 0]p_non_local_coeffs: call_update: 0 [ms]
[OGL LOG][Proc: 0]p: update_local_matrix_data: 16.747 [ms]
[OGL LOG][Proc: 0]p: update_non_local_matrix_data: 0.485 [ms]
[OGL LOG][Proc: 0]p_matrix: call_update: 2.043 [ms]
[OGL LOG][Proc: 0]p_rhs: call_update: 0.478 [ms]
[OGL LOG][Preconditioner.H:121] Generate preconditioner BJ MaxBlockSize 1
[OGL LOG][Proc: 0]p: init_precond: 1.642 [ms]
[OGL LOG][StoppingCriterion.H:239] Creating stopping criterion with minIter 378 frequency 11
[OGL LOG][Proc: 0]p: generate_solver: 0.02 [ms]
[OGL LOG][Proc: 0]p: solve: 2843.848 [ms]
[OGL LOG][Proc: 0]p: copy_x_back: 1.322 [ms]
[OGL LOG][lduLduBase.H:330] 
Statistics:
	Time per iteration: 3111 [mu s]
	Time per residual norm calculation: 1267.000000 [mu s]
	Time per iteration and DOF: 0.493251 [ns]
	Retrieve results bandwidth 2.884000 [GByte/s]
[OGL LOG][Proc: 0]p: solve_multi_gpu: 2851.835 [ms]
BJcudaGKOCG:  Solving for p, Initial residual = 0.2709673404046137, Final residual = 0.002218233216941307, No Iterations 914
time step continuity errors : sum local = 0.02429518153465081, global = -0.0009147098818080552, cumulative = 0.001835508901268097
smoothSolver:  Solving for nuTilda, Initial residual = 0.1174736796651699, Final residual = 0.01041215571383501, No Iterations 2
ExecutionTime = 46.62 s  ClockTime = 48 s

Time = 6

velocityDampingConstraint velocityDamping damped 124 (0%) of cells, with max limit 300
smoothSolver:  Solving for Ux, Initial residual = 0.1315385215410844, Final residual = 0.01254755517313612, No Iterations 4
smoothSolver:  Solving for Uy, Initial residual = 0.2522666688667754, Final residual = 0.01537675229297725, No Iterations 5
smoothSolver:  Solving for Uz, Initial residual = 0.2068524653771511, Final residual = 0.01984114526132675, No Iterations 4
[OGL LOG][Proc: 0]: global_index_init: 0.096 [ms]
[OGL LOG][Proc: 0]p_local_coeffs: call_update: 0 [ms]
[OGL LOG][Proc: 0]p_non_local_coeffs: call_update: 0 [ms]
[OGL LOG][Proc: 0]p: update_local_matrix_data: 17.439 [ms]
[OGL LOG][Proc: 0]p: update_non_local_matrix_data: 0.438 [ms]
[OGL LOG][Proc: 0]p_matrix: call_update: 1.779 [ms]
[OGL LOG][Proc: 0]p_rhs: call_update: 0.86 [ms]
[OGL LOG][Preconditioner.H:121] Generate preconditioner BJ MaxBlockSize 1
[OGL LOG][Proc: 0]p: init_precond: 1.718 [ms]
[OGL LOG][StoppingCriterion.H:239] Creating stopping criterion with minIter 548 frequency 13
[OGL LOG][Proc: 0]p: generate_solver: 0.018 [ms]
[OGL LOG][Proc: 0]p: solve: 2431.608 [ms]
[OGL LOG][Proc: 0]p: copy_x_back: 1.385 [ms]
[OGL LOG][lduLduBase.H:330] 
Statistics:
	Time per iteration: 2669 [mu s]
	Time per residual norm calculation: 1270.000000 [mu s]
	Time per iteration and DOF: 0.423171 [ns]
	Retrieve results bandwidth 2.752000 [GByte/s]
[OGL LOG][Proc: 0]p: solve_multi_gpu: 2439.936 [ms]
BJcudaGKOCG:  Solving for p, Initial residual = 0.4116434922275111, Final residual = 0.003559263250073914, No Iterations 911
time step continuity errors : sum local = 0.02519098015018047, global = -0.001144880567591933, cumulative = 0.0006906283336761642
smoothSolver:  Solving for nuTilda, Initial residual = 0.07898663587689095, Final residual = 0.004940657495785316, No Iterations 3
ExecutionTime = 50.94 s  ClockTime = 52 s

Time = 7

velocityDampingConstraint velocityDamping damped 396 (0.01%) of cells, with max limit 300
smoothSolver:  Solving for Ux, Initial residual = 0.09327907893389477, Final residual = 0.006062919376965861, No Iterations 4
smoothSolver:  Solving for Uy, Initial residual = 0.1082968769799907, Final residual = 0.00828509289969157, No Iterations 4
smoothSolver:  Solving for Uz, Initial residual = 0.1045037757581009, Final residual = 0.00790676353269025, No Iterations 4
[OGL LOG][Proc: 0]: global_index_init: 0.017 [ms]
[OGL LOG][Proc: 0]p_local_coeffs: call_update: 0 [ms]
[OGL LOG][Proc: 0]p_non_local_coeffs: call_update: 0 [ms]
[OGL LOG][Proc: 0]p: update_local_matrix_data: 15.1 [ms]
[OGL LOG][Proc: 0]p: update_non_local_matrix_data: 0.44 [ms]
[OGL LOG][Proc: 0]p_matrix: call_update: 1.604 [ms]
[OGL LOG][Proc: 0]p_rhs: call_update: 1.004 [ms]
[OGL LOG][Preconditioner.H:121] Generate preconditioner BJ MaxBlockSize 1
[OGL LOG][Proc: 0]p: init_precond: 1.466 [ms]
[OGL LOG][StoppingCriterion.H:239] Creating stopping criterion with minIter 546 frequency 13
[OGL LOG][Proc: 0]p: generate_solver: 0.013 [ms]
[OGL LOG][Proc: 0]p: solve: 2048.905 [ms]
[OGL LOG][Proc: 0]p: copy_x_back: 1.386 [ms]
[OGL LOG][lduLduBase.H:330] 
Statistics:
	Time per iteration: 2667 [mu s]
	Time per residual norm calculation: 1260.000000 [mu s]
	Time per iteration and DOF: 0.422854 [ns]
	Retrieve results bandwidth 2.751000 [GByte/s]
[OGL LOG][Proc: 0]p: solve_multi_gpu: 2059.003 [ms]
BJcudaGKOCG:  Solving for p, Initial residual = 0.2706844376054773, Final residual = 0.002598668107957783, No Iterations 768
time step continuity errors : sum local = 0.01973663975157047, global = 0.001320712653058694, cumulative = 0.002011340986734858
smoothSolver:  Solving for nuTilda, Initial residual = 0.06369171692435797, Final residual = 0.003968586602444207, No Iterations 3
ExecutionTime = 54.88 s  ClockTime = 56 s

Time = 8

velocityDampingConstraint velocityDamping damped 547 (0.01%) of cells, with max limit 300
smoothSolver:  Solving for Ux, Initial residual = 0.1222629968522327, Final residual = 0.009683996497196656, No Iterations 4
smoothSolver:  Solving for Uy, Initial residual = 0.1785767952085092, Final residual = 0.01603863360678929, No Iterations 4
smoothSolver:  Solving for Uz, Initial residual = 0.1750383367624593, Final residual = 0.01528314275747857, No Iterations 4
[OGL LOG][Proc: 0]: global_index_init: 0.081 [ms]
[OGL LOG][Proc: 0]p_local_coeffs: call_update: 0 [ms]
[OGL LOG][Proc: 0]p_non_local_coeffs: call_update: 0 [ms]
[OGL LOG][Proc: 0]p: update_local_matrix_data: 16.113 [ms]
[OGL LOG][Proc: 0]p: update_non_local_matrix_data: 0.469 [ms]
[OGL LOG][Proc: 0]p_matrix: call_update: 2.189 [ms]
[OGL LOG][Proc: 0]p_rhs: call_update: 0.428 [ms]
[OGL LOG][Preconditioner.H:121] Generate preconditioner BJ MaxBlockSize 1
[OGL LOG][Proc: 0]p: init_precond: 1.331 [ms]
[OGL LOG][StoppingCriterion.H:239] Creating stopping criterion with minIter 460 frequency 12
[OGL LOG][Proc: 0]p: generate_solver: 0.014 [ms]
[OGL LOG][Proc: 0]p: solve: 2413.653 [ms]
[OGL LOG][Proc: 0]p: copy_x_back: 1.626 [ms]
[OGL LOG][lduLduBase.H:330] 
Statistics:
	Time per iteration: 2678 [mu s]
	Time per residual norm calculation: 1256.000000 [mu s]
	Time per iteration and DOF: 0.424598 [ns]
	Retrieve results bandwidth 2.344000 [GByte/s]
[OGL LOG][Proc: 0]p: solve_multi_gpu: 2423.066 [ms]
BJcudaGKOCG:  Solving for p, Initial residual = 0.2432529473988645, Final residual = 0.001984396055738735, No Iterations 901
time step continuity errors : sum local = 0.01596255842375182, global = 0.0002212256806757143, cumulative = 0.002232566667410573
smoothSolver:  Solving for nuTilda, Initial residual = 0.04896045368868208, Final residual = 0.003795968838328643, No Iterations 3
ExecutionTime = 59.17 s  ClockTime = 61 s

Time = 9

velocityDampingConstraint velocityDamping damped 16 (0%) of cells, with max limit 300
smoothSolver:  Solving for Ux, Initial residual = 0.07073222447957095, Final residual = 0.005940823454149907, No Iterations 4
smoothSolver:  Solving for Uy, Initial residual = 0.1090352327644987, Final residual = 0.01030394473779941, No Iterations 4
smoothSolver:  Solving for Uz, Initial residual = 0.1049229103224132, Final residual = 0.009532991916446867, No Iterations 4
[OGL LOG][Proc: 0]: global_index_init: 0.195 [ms]
[OGL LOG][Proc: 0]p_local_coeffs: call_update: 0 [ms]
[OGL LOG][Proc: 0]p_non_local_coeffs: call_update: 0 [ms]
[OGL LOG][Proc: 0]p: update_local_matrix_data: 15.98 [ms]
[OGL LOG][Proc: 0]p: update_non_local_matrix_data: 0.446 [ms]
[OGL LOG][Proc: 0]p_matrix: call_update: 1.767 [ms]
[OGL LOG][Proc: 0]p_rhs: call_update: 0.772 [ms]
[OGL LOG][Preconditioner.H:121] Generate preconditioner BJ MaxBlockSize 1
[OGL LOG][Proc: 0]p: init_precond: 1.625 [ms]
[OGL LOG][StoppingCriterion.H:239] Creating stopping criterion with minIter 540 frequency 13
[OGL LOG][Proc: 0]p: generate_solver: 0.014 [ms]
[OGL LOG][Proc: 0]p: solve: 1613.99 [ms]
[OGL LOG][Proc: 0]p: copy_x_back: 1.58 [ms]
[OGL LOG][lduLduBase.H:330] 
Statistics:
	Time per iteration: 2694 [mu s]
	Time per residual norm calculation: 1258.000000 [mu s]
	Time per iteration and DOF: 0.427135 [ns]
	Retrieve results bandwidth 2.413000 [GByte/s]
[OGL LOG][Proc: 0]p: solve_multi_gpu: 1622.798 [ms]
BJcudaGKOCG:  Solving for p, Initial residual = 0.343765821188303, Final residual = 0.003227994654443994, No Iterations 599
time step continuity errors : sum local = 0.01998075288854951, global = 0.003411811958033875, cumulative = 0.005644378625444448
smoothSolver:  Solving for nuTilda, Initial residual = 0.04226218289157404, Final residual = 0.003179122684445469, No Iterations 3
ExecutionTime = 62.66 s  ClockTime = 64 s

Time = 10

velocityDampingConstraint velocityDamping damped 47 (0%) of cells, with max limit 300
smoothSolver:  Solving for Ux, Initial residual = 0.02909694012797833, Final residual = 0.002072212233441661, No Iterations 4
smoothSolver:  Solving for Uy, Initial residual = 0.05970686698323149, Final residual = 0.004476235652010944, No Iterations 4
smoothSolver:  Solving for Uz, Initial residual = 0.05866940861215635, Final residual = 0.004452350084390469, No Iterations 4
[OGL LOG][Proc: 0]: global_index_init: 0.194 [ms]
[OGL LOG][Proc: 0]p_local_coeffs: call_update: 0 [ms]
[OGL LOG][Proc: 0]p_non_local_coeffs: call_update: 0 [ms]
[OGL LOG][Proc: 0]p: update_local_matrix_data: 16.379 [ms]
[OGL LOG][Proc: 0]p: update_non_local_matrix_data: 0.536 [ms]
[OGL LOG][Proc: 0]p_matrix: call_update: 1.635 [ms]
[OGL LOG][Proc: 0]p_rhs: call_update: 0.999 [ms]
[OGL LOG][Preconditioner.H:121] Generate preconditioner BJ MaxBlockSize 1
[OGL LOG][Proc: 0]p: init_precond: 1.408 [ms]
[OGL LOG][StoppingCriterion.H:239] Creating stopping criterion with minIter 359 frequency 10
[OGL LOG][Proc: 0]p: generate_solver: 0.014 [ms]
[OGL LOG][Proc: 0]p: solve: 1021.032 [ms]
[OGL LOG][Proc: 0]p: copy_x_back: 1.359 [ms]
[OGL LOG][lduLduBase.H:330] 
Statistics:
	Time per iteration: 2752 [mu s]
	Time per residual norm calculation: 1267.000000 [mu s]
	Time per iteration and DOF: 0.436331 [ns]
	Retrieve results bandwidth 2.805000 [GByte/s]
[OGL LOG][Proc: 0]p: solve_multi_gpu: 1029.517 [ms]
BJcudaGKOCG:  Solving for p, Initial residual = 0.2985511371795583, Final residual = 0.002926584173629118, No Iterations 371
time step continuity errors : sum local = 0.01747968838304948, global = 0.002020886019047334, cumulative = 0.007665264644491782
smoothSolver:  Solving for nuTilda, Initial residual = 0.03546500211132218, Final residual = 0.002976838407950596, No Iterations 3
ExecutionTime = 65.54000000000001 s  ClockTime = 67 s

Time = 11

velocityDampingConstraint velocityDamping damped 207 (0%) of cells, with max limit 300
smoothSolver:  Solving for Ux, Initial residual = 0.03837561639884345, Final residual = 0.003147730144004057, No Iterations 4
smoothSolver:  Solving for Uy, Initial residual = 0.1046950604432956, Final residual = 0.009164597120006454, No Iterations 4
smoothSolver:  Solving for Uz, Initial residual = 0.09904600625347787, Final residual = 0.008624065111531904, No Iterations 4
[OGL LOG][Proc: 0]: global_index_init: 0.082 [ms]
[OGL LOG][Proc: 0]p_local_coeffs: call_update: 0 [ms]
[OGL LOG][Proc: 0]p_non_local_coeffs: call_update: 0 [ms]
[OGL LOG][Proc: 0]p: update_local_matrix_data: 16.068 [ms]
[OGL LOG][Proc: 0]p: update_non_local_matrix_data: 0.437 [ms]
[OGL LOG][Proc: 0]p_matrix: call_update: 2.208 [ms]
[OGL LOG][Proc: 0]p_rhs: call_update: 0.444 [ms]
[OGL LOG][Preconditioner.H:121] Generate preconditioner BJ MaxBlockSize 1
[OGL LOG][Proc: 0]p: init_precond: 1.286 [ms]
[OGL LOG][StoppingCriterion.H:239] Creating stopping criterion with minIter 222 frequency 8
[OGL LOG][Proc: 0]p: generate_solver: 0.015 [ms]
[OGL LOG][Proc: 0]p: solve: 2402.847 [ms]
[OGL LOG][Proc: 0]p: copy_x_back: 1.663 [ms]
[OGL LOG][lduLduBase.H:330] 
Statistics:
	Time per iteration: 2752 [mu s]
	Time per residual norm calculation: 974.000000 [mu s]
	Time per iteration and DOF: 0.436331 [ns]
	Retrieve results bandwidth 2.292000 [GByte/s]
[OGL LOG][Proc: 0]p: solve_multi_gpu: 2411.79 [ms]
BJcudaGKOCG:  Solving for p, Initial residual = 0.3214238964170357, Final residual = 0.00286759925874079, No Iterations 873
time step continuity errors : sum local = 0.01520333884187734, global = -0.000345864824870588, cumulative = 0.007319399819621194
smoothSolver:  Solving for nuTilda, Initial residual = 0.03217371775486663, Final residual = 0.002588339395138504, No Iterations 3
ExecutionTime = 69.8 s  ClockTime = 71 s

Time = 12

velocityDampingConstraint velocityDamping damped 23 (0%) of cells, with max limit 300
smoothSolver:  Solving for Ux, Initial residual = 0.03922303142174831, Final residual = 0.003411677179602448, No Iterations 4
smoothSolver:  Solving for Uy, Initial residual = 0.0808215710644735, Final residual = 0.007166640289522942, No Iterations 4
smoothSolver:  Solving for Uz, Initial residual = 0.080487982528962, Final residual = 0.00687803199722832, No Iterations 4
[OGL LOG][Proc: 0]: global_index_init: 0.143 [ms]
[OGL LOG][Proc: 0]p_local_coeffs: call_update: 0 [ms]
[OGL LOG][Proc: 0]p_non_local_coeffs: call_update: 0 [ms]
[OGL LOG][Proc: 0]p: update_local_matrix_data: 15.895 [ms]
[OGL LOG][Proc: 0]p: update_non_local_matrix_data: 0.446 [ms]
[OGL LOG][Proc: 0]p_matrix: call_update: 2.193 [ms]
[OGL LOG][Proc: 0]p_rhs: call_update: 0.421 [ms]
[OGL LOG][Preconditioner.H:121] Generate preconditioner BJ MaxBlockSize 1
[OGL LOG][Proc: 0]p: init_precond: 1.303 [ms]
[OGL LOG][StoppingCriterion.H:239] Creating stopping criterion with minIter 523 frequency 13
[OGL LOG][Proc: 0]p: generate_solver: 0.016 [ms]
[OGL LOG][Proc: 0]p: solve: 2337.979 [ms]
[OGL LOG][Proc: 0]p: copy_x_back: 1.316 [ms]
[OGL LOG][lduLduBase.H:330] 
Statistics:
	Time per iteration: 2681 [mu s]
	Time per residual norm calculation: 1263.000000 [mu s]
	Time per iteration and DOF: 0.425074 [ns]
	Retrieve results bandwidth 2.897000 [GByte/s]
[OGL LOG][Proc: 0]p: solve_multi_gpu: 2346.745 [ms]
BJcudaGKOCG:  Solving for p, Initial residual = 0.5048319388350587, Final residual = 0.005001205323709185, No Iterations 872
time step continuity errors : sum local = 0.01518919963204356, global = -0.0006354304164087851, cumulative = 0.006683969403212408
smoothSolver:  Solving for nuTilda, Initial residual = 0.02864071295171386, Final residual = 0.002527856509371574, No Iterations 3
ExecutionTime = 73.98 s  ClockTime = 75 s

Time = 13

velocityDampingConstraint velocityDamping damped 11 (0%) of cells, with max limit 300
smoothSolver:  Solving for Ux, Initial residual = 0.030534823631581, Final residual = 0.002417131691735705, No Iterations 4
smoothSolver:  Solving for Uy, Initial residual = 0.05919230545361964, Final residual = 0.004810813262820366, No Iterations 4
smoothSolver:  Solving for Uz, Initial residual = 0.06055728973188631, Final residual = 0.004652717314622907, No Iterations 4
[OGL LOG][Proc: 0]: global_index_init: 0.213 [ms]
[OGL LOG][Proc: 0]p_local_coeffs: call_update: 0 [ms]
[OGL LOG][Proc: 0]p_non_local_coeffs: call_update: 0 [ms]
[OGL LOG][Proc: 0]p: update_local_matrix_data: 16.845 [ms]
[OGL LOG][Proc: 0]p: update_non_local_matrix_data: 0.435 [ms]
[OGL LOG][Proc: 0]p_matrix: call_update: 2.146 [ms]
[OGL LOG][Proc: 0]p_rhs: call_update: 0.414 [ms]
[OGL LOG][Preconditioner.H:121] Generate preconditioner BJ MaxBlockSize 1
[OGL LOG][Proc: 0]p: init_precond: 1.335 [ms]
[OGL LOG][StoppingCriterion.H:239] Creating stopping criterion with minIter 523 frequency 13
[OGL LOG][Proc: 0]p: generate_solver: 0.013 [ms]
[OGL LOG][Proc: 0]p: solve: 1743.804 [ms]
[OGL LOG][Proc: 0]p: copy_x_back: 1.399 [ms]
[OGL LOG][lduLduBase.H:330] 
Statistics:
	Time per iteration: 3265 [mu s]
	Time per residual norm calculation: 1259.000000 [mu s]
	Time per iteration and DOF: 0.517668 [ns]
	Retrieve results bandwidth 2.725000 [GByte/s]
[OGL LOG][Proc: 0]p: solve_multi_gpu: 1751.823 [ms]
BJcudaGKOCG:  Solving for p, Initial residual = 0.3639278465268505, Final residual = 0.001739234484517423, No Iterations 534
time step continuity errors : sum local = 0.006716961210054924, global = 0.0007632910235789096, cumulative = 0.007447260426791318
smoothSolver:  Solving for nuTilda, Initial residual = 0.02775748666216745, Final residual = 0.002344226483778603, No Iterations 3
ExecutionTime = 77.59 s  ClockTime = 79 s

Time = 14

velocityDampingConstraint velocityDamping damped 58 (0%) of cells, with max limit 300
smoothSolver:  Solving for Ux, Initial residual = 0.03582221956686745, Final residual = 0.002979909238402424, No Iterations 4
smoothSolver:  Solving for Uy, Initial residual = 0.06999914799122867, Final residual = 0.006329442112404496, No Iterations 4
smoothSolver:  Solving for Uz, Initial residual = 0.06908076002597717, Final residual = 0.006075042041030833, No Iterations 4
[OGL LOG][Proc: 0]: global_index_init: 0.024 [ms]
[OGL LOG][Proc: 0]p_local_coeffs: call_update: 0 [ms]
[OGL LOG][Proc: 0]p_non_local_coeffs: call_update: 0 [ms]
[OGL LOG][Proc: 0]p: update_local_matrix_data: 16.811 [ms]
[OGL LOG][Proc: 0]p: update_non_local_matrix_data: 0.444 [ms]
[OGL LOG][Proc: 0]p_matrix: call_update: 2.245 [ms]
[OGL LOG][Proc: 0]p_rhs: call_update: 0.498 [ms]
[OGL LOG][Preconditioner.H:121] Generate preconditioner BJ MaxBlockSize 1
[OGL LOG][Proc: 0]p: init_precond: 1.287 [ms]
[OGL LOG][StoppingCriterion.H:239] Creating stopping criterion with minIter 320 frequency 10
[OGL LOG][Proc: 0]p: generate_solver: 0.014 [ms]
[OGL LOG][Proc: 0]p: solve: 2354.703 [ms]
[OGL LOG][Proc: 0]p: copy_x_back: 1.426 [ms]
[OGL LOG][lduLduBase.H:330] 
Statistics:
	Time per iteration: 2734 [mu s]
	Time per residual norm calculation: 1264.000000 [mu s]
	Time per iteration and DOF: 0.433477 [ns]
	Retrieve results bandwidth 2.673000 [GByte/s]
[OGL LOG][Proc: 0]p: solve_multi_gpu: 2363.597 [ms]
BJcudaGKOCG:  Solving for p, Initial residual = 0.3345063553796918, Final residual = 0.003209592655797655, No Iterations 861
time step continuity errors : sum local = 0.01084903495691247, global = 0.0001762859602550041, cumulative = 0.007623546387046322
smoothSolver:  Solving for nuTilda, Initial residual = 0.02579809227973126, Final residual = 0.002365187147169422, No Iterations 3
ExecutionTime = 81.8 s  ClockTime = 83 s

Time = 15

velocityDampingConstraint velocityDamping damped 7 (0%) of cells, with max limit 300
smoothSolver:  Solving for Ux, Initial residual = 0.02826183031418645, Final residual = 0.002322389018249093, No Iterations 4
smoothSolver:  Solving for Uy, Initial residual = 0.04821394862526808, Final residual = 0.004213985501335935, No Iterations 4
smoothSolver:  Solving for Uz, Initial residual = 0.04764549252933879, Final residual = 0.004002307184190338, No Iterations 4
[OGL LOG][Proc: 0]: global_index_init: 0.152 [ms]
[OGL LOG][Proc: 0]p_local_coeffs: call_update: 0 [ms]
[OGL LOG][Proc: 0]p_non_local_coeffs: call_update: 0 [ms]
[OGL LOG][Proc: 0]p: update_local_matrix_data: 14.994 [ms]
[OGL LOG][Proc: 0]p: update_non_local_matrix_data: 0.476 [ms]
[OGL LOG][Proc: 0]p_matrix: call_update: 2.114 [ms]
[OGL LOG][Proc: 0]p_rhs: call_update: 0.479 [ms]
[OGL LOG][Preconditioner.H:121] Generate preconditioner BJ MaxBlockSize 1
[OGL LOG][Proc: 0]p: init_precond: 1.345 [ms]
[OGL LOG][StoppingCriterion.H:239] Creating stopping criterion with minIter 516 frequency 13
[OGL LOG][Proc: 0]p: generate_solver: 0.014 [ms]
[OGL LOG][Proc: 0]p: solve: 1612.59 [ms]
[OGL LOG][Proc: 0]p: copy_x_back: 1.754 [ms]
[OGL LOG][lduLduBase.H:330] 
Statistics:
	Time per iteration: 2692 [mu s]
	Time per residual norm calculation: 1262.000000 [mu s]
	Time per iteration and DOF: 0.426818 [ns]
	Retrieve results bandwidth 2.173000 [GByte/s]
[OGL LOG][Proc: 0]p: solve_multi_gpu: 1623.547 [ms]
BJcudaGKOCG:  Solving for p, Initial residual = 0.3243626161486144, Final residual = 0.003118991478720937, No Iterations 599
time step continuity errors : sum local = 0.009692993474416614, global = 0.001906046101199483, cumulative = 0.009529592488245805
smoothSolver:  Solving for nuTilda, Initial residual = 0.0257404426035713, Final residual = 0.002213260748134667, No Iterations 3
ExecutionTime = 85.27 s  ClockTime = 87 s

Time = 16

velocityDampingConstraint velocityDamping damped 0 (0%) of cells, with max limit 300
smoothSolver:  Solving for Ux, Initial residual = 0.01853163782509587, Final residual = 0.001370973798673214, No Iterations 4
smoothSolver:  Solving for Uy, Initial residual = 0.03837611797177792, Final residual = 0.002910336646006283, No Iterations 4
smoothSolver:  Solving for Uz, Initial residual = 0.0426733908441669, Final residual = 0.00332018747456184, No Iterations 4
[OGL LOG][Proc: 0]: global_index_init: 0.173 [ms]
[OGL LOG][Proc: 0]p_local_coeffs: call_update: 0 [ms]
[OGL LOG][Proc: 0]p_non_local_coeffs: call_update: 0 [ms]
[OGL LOG][Proc: 0]p: update_local_matrix_data: 16.77 [ms]
[OGL LOG][Proc: 0]p: update_non_local_matrix_data: 0.483 [ms]
[OGL LOG][Proc: 0]p_matrix: call_update: 1.882 [ms]
[OGL LOG][Proc: 0]p_rhs: call_update: 0.616 [ms]
[OGL LOG][Preconditioner.H:121] Generate preconditioner BJ MaxBlockSize 1
[OGL LOG][Proc: 0]p: init_precond: 1.797 [ms]
[OGL LOG][StoppingCriterion.H:239] Creating stopping criterion with minIter 359 frequency 10
[OGL LOG][Proc: 0]p: generate_solver: 0.016 [ms]
[OGL LOG][Proc: 0]p: solve: 1098.819 [ms]
[OGL LOG][Proc: 0]p: copy_x_back: 1.329 [ms]
[OGL LOG][lduLduBase.H:330] 
Statistics:
	Time per iteration: 2740 [mu s]
	Time per residual norm calculation: 1265.000000 [mu s]
	Time per iteration and DOF: 0.434429 [ns]
	Retrieve results bandwidth 2.868000 [GByte/s]
[OGL LOG][Proc: 0]p: solve_multi_gpu: 1106.808 [ms]
BJcudaGKOCG:  Solving for p, Initial residual = 0.4134294873734743, Final residual = 0.003943921872621394, No Iterations 401
time step continuity errors : sum local = 0.009773473594151016, global = 0.001136375754862441, cumulative = 0.01066596824310824
smoothSolver:  Solving for nuTilda, Initial residual = 0.02364052487192542, Final residual = 0.002232439526382191, No Iterations 3
ExecutionTime = 88.23 s  ClockTime = 90 s

Time = 17

velocityDampingConstraint velocityDamping damped 0 (0%) of cells, with max limit 300
smoothSolver:  Solving for Ux, Initial residual = 0.01521847092953563, Final residual = 0.001150805649235767, No Iterations 4
smoothSolver:  Solving for Uy, Initial residual = 0.04315557878185156, Final residual = 0.003613010594174759, No Iterations 4
smoothSolver:  Solving for Uz, Initial residual = 0.04618822866173724, Final residual = 0.003883648602421214, No Iterations 4
[OGL LOG][Proc: 0]: global_index_init: 0.063 [ms]
[OGL LOG][Proc: 0]p_local_coeffs: call_update: 0 [ms]
[OGL LOG][Proc: 0]p_non_local_coeffs: call_update: 0 [ms]
[OGL LOG][Proc: 0]p: update_local_matrix_data: 16.637 [ms]
[OGL LOG][Proc: 0]p: update_non_local_matrix_data: 0.46 [ms]
[OGL LOG][Proc: 0]p_matrix: call_update: 2.218 [ms]
[OGL LOG][Proc: 0]p_rhs: call_update: 0.436 [ms]
[OGL LOG][Preconditioner.H:121] Generate preconditioner BJ MaxBlockSize 1
[OGL LOG][Proc: 0]p: init_precond: 1.324 [ms]
[OGL LOG][StoppingCriterion.H:239] Creating stopping criterion with minIter 240 frequency 8
[OGL LOG][Proc: 0]p: generate_solver: 0.014 [ms]
[OGL LOG][Proc: 0]p: solve: 1569.603 [ms]
[OGL LOG][Proc: 0]p: copy_x_back: 1.435 [ms]
[OGL LOG][lduLduBase.H:330] 
Statistics:
	Time per iteration: 2758 [mu s]
	Time per residual norm calculation: 1274.000000 [mu s]
	Time per iteration and DOF: 0.437282 [ns]
	Retrieve results bandwidth 2.657000 [GByte/s]
[OGL LOG][Proc: 0]p: solve_multi_gpu: 1577.9 [ms]
BJcudaGKOCG:  Solving for p, Initial residual = 0.4313240963079381, Final residual = 0.004285897747746684, No Iterations 569
time step continuity errors : sum local = 0.008961528032415402, global = -0.001778501112715866, cumulative = 0.008887467130392379
smoothSolver:  Solving for nuTilda, Initial residual = 0.0246410127367651, Final residual = 0.002074904640667461, No Iterations 3
ExecutionTime = 91.66 s  ClockTime = 93 s

Time = 18

velocityDampingConstraint velocityDamping damped 15 (0%) of cells, with max limit 300
smoothSolver:  Solving for Ux, Initial residual = 0.01618361922664293, Final residual = 0.001259918467633717, No Iterations 4
smoothSolver:  Solving for Uy, Initial residual = 0.03621414006608515, Final residual = 0.002982123095201072, No Iterations 4
smoothSolver:  Solving for Uz, Initial residual = 0.03787085668904465, Final residual = 0.003066357471403813, No Iterations 4
[OGL LOG][Proc: 0]: global_index_init: 0.139 [ms]
[OGL LOG][Proc: 0]p_local_coeffs: call_update: 0 [ms]
[OGL LOG][Proc: 0]p_non_local_coeffs: call_update: 0 [ms]
[OGL LOG][Proc: 0]p: update_local_matrix_data: 16.599 [ms]
[OGL LOG][Proc: 0]p: update_non_local_matrix_data: 0.455 [ms]
[OGL LOG][Proc: 0]p_matrix: call_update: 1.821 [ms]
[OGL LOG][Proc: 0]p_rhs: call_update: 0.805 [ms]
[OGL LOG][Preconditioner.H:121] Generate preconditioner BJ MaxBlockSize 1
[OGL LOG][Proc: 0]p: init_precond: 1.798 [ms]
[OGL LOG][StoppingCriterion.H:239] Creating stopping criterion with minIter 341 frequency 10
[OGL LOG][Proc: 0]p: generate_solver: 0.019 [ms]
[OGL LOG][Proc: 0]p: solve: 2321.14 [ms]
[OGL LOG][Proc: 0]p: copy_x_back: 1.295 [ms]
[OGL LOG][lduLduBase.H:330] 
Statistics:
	Time per iteration: 2727 [mu s]
	Time per residual norm calculation: 1265.000000 [mu s]
	Time per iteration and DOF: 0.432367 [ns]
	Retrieve results bandwidth 2.944000 [GByte/s]
[OGL LOG][Proc: 0]p: solve_multi_gpu: 2329.918 [ms]
BJcudaGKOCG:  Solving for p, Initial residual = 0.2803940983267934, Final residual = 0.002673065815459341, No Iterations 851
time step continuity errors : sum local = 0.007398000115053338, global = -0.0003027353680192038, cumulative = 0.008584731762373175
smoothSolver:  Solving for nuTilda, Initial residual = 0.02202660751532928, Final residual = 0.002113837774903051, No Iterations 3
ExecutionTime = 95.84 s  ClockTime = 97 s

Time = 19

velocityDampingConstraint velocityDamping damped 0 (0%) of cells, with max limit 300
smoothSolver:  Solving for Ux, Initial residual = 0.01484442571709492, Final residual = 0.001316585653534204, No Iterations 4
smoothSolver:  Solving for Uy, Initial residual = 0.0353317462120532, Final residual = 0.003029700606467339, No Iterations 4
smoothSolver:  Solving for Uz, Initial residual = 0.03570495595660043, Final residual = 0.002936007371033202, No Iterations 4
[OGL LOG][Proc: 0]: global_index_init: 0.018 [ms]
[OGL LOG][Proc: 0]p_local_coeffs: call_update: 0 [ms]
[OGL LOG][Proc: 0]p_non_local_coeffs: call_update: 0 [ms]
[OGL LOG][Proc: 0]p: update_local_matrix_data: 16.427 [ms]
[OGL LOG][Proc: 0]p: update_non_local_matrix_data: 0.457 [ms]
[OGL LOG][Proc: 0]p_matrix: call_update: 1.953 [ms]
[OGL LOG][Proc: 0]p_rhs: call_update: 0.62 [ms]
[OGL LOG][Preconditioner.H:121] Generate preconditioner BJ MaxBlockSize 1
[OGL LOG][Proc: 0]p: init_precond: 1.637 [ms]
[OGL LOG][StoppingCriterion.H:239] Creating stopping criterion with minIter 510 frequency 13
[OGL LOG][Proc: 0]p: generate_solver: 0.015 [ms]
[OGL LOG][Proc: 0]p: solve: 1396.659 [ms]
[OGL LOG][Proc: 0]p: copy_x_back: 1.369 [ms]
[OGL LOG][lduLduBase.H:330] 
Statistics:
	Time per iteration: 2680 [mu s]
	Time per residual norm calculation: 961.000000 [mu s]
	Time per iteration and DOF: 0.424916 [ns]
	Retrieve results bandwidth 2.785000 [GByte/s]
[OGL LOG][Proc: 0]p: solve_multi_gpu: 1405.025 [ms]
BJcudaGKOCG:  Solving for p, Initial residual = 0.4192320017328255, Final residual = 0.001915803163436696, No Iterations 521
time step continuity errors : sum local = 0.003368549668528249, global = 0.000450509334982955, cumulative = 0.00903524109735613
smoothSolver:  Solving for nuTilda, Initial residual = 0.02538811596876049, Final residual = 0.001974303511018036, No Iterations 3
ExecutionTime = 99.09 s  ClockTime = 101 s

Time = 20

velocityDampingConstraint velocityDamping damped 4 (0%) of cells, with max limit 300
smoothSolver:  Solving for Ux, Initial residual = 0.01527971727289491, Final residual = 0.001294861204793985, No Iterations 4
smoothSolver:  Solving for Uy, Initial residual = 0.0332901249162043, Final residual = 0.003040795530887165, No Iterations 4
smoothSolver:  Solving for Uz, Initial residual = 0.03297988452092614, Final residual = 0.002865592217395497, No Iterations 4
[OGL LOG][Proc: 0]: global_index_init: 0.176 [ms]
[OGL LOG][Proc: 0]p_local_coeffs: call_update: 0 [ms]
[OGL LOG][Proc: 0]p_non_local_coeffs: call_update: 0 [ms]
[OGL LOG][Proc: 0]p: update_local_matrix_data: 16.345 [ms]
[OGL LOG][Proc: 0]p: update_non_local_matrix_data: 0.433 [ms]
[OGL LOG][Proc: 0]p_matrix: call_update: 2.258 [ms]
[OGL LOG][Proc: 0]p_rhs: call_update: 0.441 [ms]
[OGL LOG][Preconditioner.H:121] Generate preconditioner BJ MaxBlockSize 1
[OGL LOG][Proc: 0]p: init_precond: 1.353 [ms]
[OGL LOG][StoppingCriterion.H:239] Creating stopping criterion with minIter 312 frequency 10
[OGL LOG][Proc: 0]p: generate_solver: 0.014 [ms]
[OGL LOG][Proc: 0]p: solve: 2261.598 [ms]
[OGL LOG][Proc: 0]p: copy_x_back: 1.388 [ms]
[OGL LOG][lduLduBase.H:330] 
Statistics:
	Time per iteration: 2721 [mu s]
	Time per residual norm calculation: 969.000000 [mu s]
	Time per iteration and DOF: 0.431416 [ns]
	Retrieve results bandwidth 2.747000 [GByte/s]
[OGL LOG][Proc: 0]p: solve_multi_gpu: 2270.139 [ms]
BJcudaGKOCG:  Solving for p, Initial residual = 0.3467417838590463, Final residual = 0.003101370922015199, No Iterations 831
time step continuity errors : sum local = 0.005560175664326211, global = 8.847843982934843e-05, cumulative = 0.009123719537185477
smoothSolver:  Solving for nuTilda, Initial residual = 0.02096214178205724, Final residual = 0.002051041917972891, No Iterations 3
ExecutionTime = 103.19 s  ClockTime = 105 s

Time = 21

velocityDampingConstraint velocityDamping damped 0 (0%) of cells, with max limit 300
smoothSolver:  Solving for Ux, Initial residual = 0.0125640080371583, Final residual = 0.001048363976527225, No Iterations 4
smoothSolver:  Solving for Uy, Initial residual = 0.02584291698486059, Final residual = 0.002281383799684033, No Iterations 4
smoothSolver:  Solving for Uz, Initial residual = 0.02686676087382228, Final residual = 0.002231394914361665, No Iterations 4
[OGL LOG][Proc: 0]: global_index_init: 0.08699999999999999 [ms]
[OGL LOG][Proc: 0]p_local_coeffs: call_update: 0 [ms]
[OGL LOG][Proc: 0]p_non_local_coeffs: call_update: 0 [ms]
[OGL LOG][Proc: 0]p: update_local_matrix_data: 28.301 [ms]
[OGL LOG][Proc: 0]p: update_non_local_matrix_data: 0.428 [ms]
[OGL LOG][Proc: 0]p_matrix: call_update: 3.978 [ms]
[OGL LOG][Proc: 0]p_rhs: call_update: 2.589 [ms]
[OGL LOG][Preconditioner.H:121] Generate preconditioner BJ MaxBlockSize 1
[OGL LOG][Proc: 0]p: init_precond: 3.466 [ms]
[OGL LOG][StoppingCriterion.H:239] Creating stopping criterion with minIter 498 frequency 12
[OGL LOG][Proc: 0]p: generate_solver: 0.013 [ms]
[OGL LOG][Proc: 0]p: solve: 3007.132 [ms]
[OGL LOG][Proc: 0]p: copy_x_back: 1.362 [ms]
[OGL LOG][lduLduBase.H:330] 
Statistics:
	Time per iteration: 3627 [mu s]
	Time per residual norm calculation: 1112.000000 [mu s]
	Time per iteration and DOF: 0.575063 [ns]
	Retrieve results bandwidth 2.799000 [GByte/s]
[OGL LOG][Proc: 0]p: solve_multi_gpu: 3020.51 [ms]
BJcudaGKOCG:  Solving for p, Initial residual = 0.2917840581478534, Final residual = 0.002643825106030583, No Iterations 829
time step continuity errors : sum local = 0.004733834033032662, global = 0.0002244179091203544, cumulative = 0.009348137446305832
smoothSolver:  Solving for nuTilda, Initial residual = 0.02862948367752986, Final residual = 0.001904758519649907, No Iterations 3
ExecutionTime = 107.61 s  ClockTime = 110 s

Time = 22

velocityDampingConstraint velocityDamping damped 0 (0%) of cells, with max limit 300
smoothSolver:  Solving for Ux, Initial residual = 0.009996434136965059, Final residual = 0.0008351267566542477, No Iterations 4
smoothSolver:  Solving for Uy, Initial residual = 0.024556729585397, Final residual = 0.002014519457909785, No Iterations 4
smoothSolver:  Solving for Uz, Initial residual = 0.02736883246578182, Final residual = 0.002191154167502033, No Iterations 4
[OGL LOG][Proc: 0]: global_index_init: 0.114 [ms]
[OGL LOG][Proc: 0]p_local_coeffs: call_update: 0 [ms]
[OGL LOG][Proc: 0]p_non_local_coeffs: call_update: 0 [ms]
[OGL LOG][Proc: 0]p: update_local_matrix_data: 15.641 [ms]
[OGL LOG][Proc: 0]p: update_non_local_matrix_data: 0.464 [ms]
[OGL LOG][Proc: 0]p_matrix: call_update: 1.882 [ms]
[OGL LOG][Proc: 0]p_rhs: call_update: 0.8 [ms]
[OGL LOG][Preconditioner.H:121] Generate preconditioner BJ MaxBlockSize 1
[OGL LOG][Proc: 0]p: init_precond: 1.698 [ms]
[OGL LOG][StoppingCriterion.H:239] Creating stopping criterion with minIter 497 frequency 10
[OGL LOG][Proc: 0]p: generate_solver: 0.015 [ms]
[OGL LOG][Proc: 0]p: solve: 2078.904 [ms]
[OGL LOG][Proc: 0]p: copy_x_back: 1.301 [ms]
[OGL LOG][lduLduBase.H:330] 
Statistics:
	Time per iteration: 2696 [mu s]
	Time per residual norm calculation: 1256.000000 [mu s]
	Time per iteration and DOF: 0.427452 [ns]
	Retrieve results bandwidth 2.930000 [GByte/s]
[OGL LOG][Proc: 0]p: solve_multi_gpu: 2088.639 [ms]
BJcudaGKOCG:  Solving for p, Initial residual = 0.2590800055368615, Final residual = 0.002573976174560732, No Iterations 771
time step continuity errors : sum local = 0.004952622420770999, global = -0.0001642549768777997, cumulative = 0.009183882469428032
smoothSolver:  Solving for nuTilda, Initial residual = 0.01997339121283855, Final residual = 0.001991349536455583, No Iterations 3
ExecutionTime = 111.53 s  ClockTime = 114 s

Time = 23

velocityDampingConstraint velocityDamping damped 0 (0%) of cells, with max limit 300
smoothSolver:  Solving for Ux, Initial residual = 0.009259129183799123, Final residual = 0.0007425823174035178, No Iterations 4
smoothSolver:  Solving for Uy, Initial residual = 0.02481452304820314, Final residual = 0.002107360387125088, No Iterations 4
smoothSolver:  Solving for Uz, Initial residual = 0.02648760634216331, Final residual = 0.002195291622173576, No Iterations 4
[OGL LOG][Proc: 0]: global_index_init: 0.04 [ms]
[OGL LOG][Proc: 0]p_local_coeffs: call_update: 0 [ms]
[OGL LOG][Proc: 0]p_non_local_coeffs: call_update: 0 [ms]
[OGL LOG][Proc: 0]p: update_local_matrix_data: 17.625 [ms]
[OGL LOG][Proc: 0]p: update_non_local_matrix_data: 0.506 [ms]
[OGL LOG][Proc: 0]p_matrix: call_update: 1.786 [ms]
[OGL LOG][Proc: 0]p_rhs: call_update: 0.886 [ms]
[OGL LOG][Preconditioner.H:121] Generate preconditioner BJ MaxBlockSize 1
[OGL LOG][Proc: 0]p: init_precond: 1.726 [ms]
[OGL LOG][StoppingCriterion.H:239] Creating stopping criterion with minIter 462 frequency 12
[OGL LOG][Proc: 0]p: generate_solver: 0.016 [ms]
[OGL LOG][Proc: 0]p: solve: 2172.31 [ms]
[OGL LOG][Proc: 0]p: copy_x_back: 1.324 [ms]
[OGL LOG][lduLduBase.H:330] 
Statistics:
	Time per iteration: 2698 [mu s]
	Time per residual norm calculation: 1262.000000 [mu s]
	Time per iteration and DOF: 0.427769 [ns]
	Retrieve results bandwidth 2.879000 [GByte/s]
[OGL LOG][Proc: 0]p: solve_multi_gpu: 2180.568 [ms]
BJcudaGKOCG:  Solving for p, Initial residual = 0.2673761688874576, Final residual = 0.002668851593170703, No Iterations 805
time step continuity errors : sum local = 0.004379930636945279, global = -0.0001447315737509382, cumulative = 0.009039150895677094
smoothSolver:  Solving for nuTilda, Initial residual = 0.03161883493869894, Final residual = 0.001829142344267381, No Iterations 3
ExecutionTime = 115.57 s  ClockTime = 118 s

Time = 24

velocityDampingConstraint velocityDamping damped 0 (0%) of cells, with max limit 300
smoothSolver:  Solving for Ux, Initial residual = 0.008829114244601761, Final residual = 0.0007622260348031991, No Iterations 4
smoothSolver:  Solving for Uy, Initial residual = 0.02365351969710791, Final residual = 0.002055184412747752, No Iterations 4
smoothSolver:  Solving for Uz, Initial residual = 0.02417329217050336, Final residual = 0.002056230811768745, No Iterations 4
[OGL LOG][Proc: 0]: global_index_init: 0.186 [ms]
[OGL LOG][Proc: 0]p_local_coeffs: call_update: 0 [ms]
[OGL LOG][Proc: 0]p_non_local_coeffs: call_update: 0 [ms]
[OGL LOG][Proc: 0]p: update_local_matrix_data: 15.406 [ms]
[OGL LOG][Proc: 0]p: update_non_local_matrix_data: 0.464 [ms]
[OGL LOG][Proc: 0]p_matrix: call_update: 2.101 [ms]
[OGL LOG][Proc: 0]p_rhs: call_update: 0.47 [ms]
[OGL LOG][Preconditioner.H:121] Generate preconditioner BJ MaxBlockSize 1
[OGL LOG][Proc: 0]p: init_precond: 1.331 [ms]
[OGL LOG][StoppingCriterion.H:239] Creating stopping criterion with minIter 483 frequency 12
[OGL LOG][Proc: 0]p: generate_solver: 0.013 [ms]
[OGL LOG][Proc: 0]p: solve: 2099.737 [ms]
[OGL LOG][Proc: 0]p: copy_x_back: 1.31 [ms]
[OGL LOG][lduLduBase.H:330] 
Statistics:
	Time per iteration: 2688 [mu s]
	Time per residual norm calculation: 1250.000000 [mu s]
	Time per iteration and DOF: 0.426184 [ns]
	Retrieve results bandwidth 2.910000 [GByte/s]
[OGL LOG][Proc: 0]p: solve_multi_gpu: 2109.263 [ms]
BJcudaGKOCG:  Solving for p, Initial residual = 0.3565570691445153, Final residual = 0.003371739415861489, No Iterations 781
time step continuity errors : sum local = 0.003733435555632147, global = -0.0002917275974880329, cumulative = 0.008747423298189061
smoothSolver:  Solving for nuTilda, Initial residual = 0.01875489354396333, Final residual = 0.001093577745543325, No Iterations 4
ExecutionTime = 119.51 s  ClockTime = 122 s

Time = 25

velocityDampingConstraint velocityDamping damped 0 (0%) of cells, with max limit 300
smoothSolver:  Solving for Ux, Initial residual = 0.008772130018757639, Final residual = 0.0007984056472262219, No Iterations 4
smoothSolver:  Solving for Uy, Initial residual = 0.02333649771373788, Final residual = 0.00208640557959191, No Iterations 4
smoothSolver:  Solving for Uz, Initial residual = 0.02354015531284224, Final residual = 0.002036510278708232, No Iterations 4
[OGL LOG][Proc: 0]: global_index_init: 0.019 [ms]
[OGL LOG][Proc: 0]p_local_coeffs: call_update: 0 [ms]
[OGL LOG][Proc: 0]p_non_local_coeffs: call_update: 0 [ms]
[OGL LOG][Proc: 0]p: update_local_matrix_data: 17.062 [ms]
[OGL LOG][Proc: 0]p: update_non_local_matrix_data: 0.486 [ms]
[OGL LOG][Proc: 0]p_matrix: call_update: 1.938 [ms]
[OGL LOG][Proc: 0]p_rhs: call_update: 0.625 [ms]
[OGL LOG][Preconditioner.H:121] Generate preconditioner BJ MaxBlockSize 1
[OGL LOG][Proc: 0]p: init_precond: 1.598 [ms]
[OGL LOG][StoppingCriterion.H:239] Creating stopping criterion with minIter 468 frequency 12
[OGL LOG][Proc: 0]p: generate_solver: 0.018 [ms]
[OGL LOG][Proc: 0]p: solve: 1963.679 [ms]
[OGL LOG][Proc: 0]p: copy_x_back: 1.33 [ms]
[OGL LOG][lduLduBase.H:330] 
Statistics:
	Time per iteration: 2678 [mu s]
	Time per residual norm calculation: 1263.000000 [mu s]
	Time per iteration and DOF: 0.424598 [ns]
	Retrieve results bandwidth 2.866000 [GByte/s]
[OGL LOG][Proc: 0]p: solve_multi_gpu: 1971.776 [ms]
BJcudaGKOCG:  Solving for p, Initial residual = 0.3209633226934405, Final residual = 0.003152836282196537, No Iterations 733
time step continuity errors : sum local = 0.003450896706497925, global = 0.0002550327300874184, cumulative = 0.009002456028276479
smoothSolver:  Solving for nuTilda, Initial residual = 0.03174800226335322, Final residual = 0.001752745310147394, No Iterations 3
ExecutionTime = 123.32 s  ClockTime = 125 s

Time = 26

velocityDampingConstraint velocityDamping damped 0 (0%) of cells, with max limit 300
smoothSolver:  Solving for Ux, Initial residual = 0.008484665278577424, Final residual = 0.0007673516114906851, No Iterations 4
smoothSolver:  Solving for Uy, Initial residual = 0.02115520124635429, Final residual = 0.001953970148690465, No Iterations 4
smoothSolver:  Solving for Uz, Initial residual = 0.02140209735027088, Final residual = 0.001864820928230853, No Iterations 4
[OGL LOG][Proc: 0]: global_index_init: 0.203 [ms]
[OGL LOG][Proc: 0]p_local_coeffs: call_update: 0 [ms]
[OGL LOG][Proc: 0]p_non_local_coeffs: call_update: 0 [ms]
[OGL LOG][Proc: 0]p: update_local_matrix_data: 16.446 [ms]
[OGL LOG][Proc: 0]p: update_non_local_matrix_data: 0.499 [ms]
[OGL LOG][Proc: 0]p_matrix: call_update: 2.054 [ms]
[OGL LOG][Proc: 0]p_rhs: call_update: 0.504 [ms]
[OGL LOG][Preconditioner.H:121] Generate preconditioner BJ MaxBlockSize 1
[OGL LOG][Proc: 0]p: init_precond: 1.624 [ms]
[OGL LOG][StoppingCriterion.H:239] Creating stopping criterion with minIter 439 frequency 12
[OGL LOG][Proc: 0]p: generate_solver: 0.014 [ms]
[OGL LOG][Proc: 0]p: solve: 2058.319 [ms]
[OGL LOG][Proc: 0]p: copy_x_back: 1.432 [ms]
[OGL LOG][lduLduBase.H:330] 
Statistics:
	Time per iteration: 2676 [mu s]
	Time per residual norm calculation: 970.000000 [mu s]
	Time per iteration and DOF: 0.424281 [ns]
	Retrieve results bandwidth 2.662000 [GByte/s]
[OGL LOG][Proc: 0]p: solve_multi_gpu: 2067.187 [ms]
BJcudaGKOCG:  Solving for p, Initial residual = 0.3105848483347572, Final residual = 0.002830139266598575, No Iterations 769
time step continuity errors : sum local = 0.002796323512706811, global = 0.0001789542021427315, cumulative = 0.009181410230419211
smoothSolver:  Solving for nuTilda, Initial residual = 0.01741187369656196, Final residual = 0.001056563284249179, No Iterations 4
ExecutionTime = 127.23 s  ClockTime = 129 s

Time = 27

velocityDampingConstraint velocityDamping damped 0 (0%) of cells, with max limit 300
smoothSolver:  Solving for Ux, Initial residual = 0.007525037003649094, Final residual = 0.0006615924786911117, No Iterations 4
smoothSolver:  Solving for Uy, Initial residual = 0.01898963860730863, Final residual = 0.001755359139657809, No Iterations 4
smoothSolver:  Solving for Uz, Initial residual = 0.01963086525147081, Final residual = 0.001682986878447455, No Iterations 4
[OGL LOG][Proc: 0]: global_index_init: 0.018 [ms]
[OGL LOG][Proc: 0]p_local_coeffs: call_update: 0 [ms]
[OGL LOG][Proc: 0]p_non_local_coeffs: call_update: 0 [ms]
[OGL LOG][Proc: 0]p: update_local_matrix_data: 17.569 [ms]
[OGL LOG][Proc: 0]p: update_non_local_matrix_data: 0.461 [ms]
[OGL LOG][Proc: 0]p_matrix: call_update: 1.879 [ms]
[OGL LOG][Proc: 0]p_rhs: call_update: 0.71 [ms]
[OGL LOG][Preconditioner.H:121] Generate preconditioner BJ MaxBlockSize 1
[OGL LOG][Proc: 0]p: init_precond: 1.77 [ms]
[OGL LOG][StoppingCriterion.H:239] Creating stopping criterion with minIter 461 frequency 12
[OGL LOG][Proc: 0]p: generate_solver: 0.017 [ms]
[OGL LOG][Proc: 0]p: solve: 1273.713 [ms]
[OGL LOG][Proc: 0]p: copy_x_back: 1.365 [ms]
[OGL LOG][lduLduBase.H:330] 
Statistics:
	Time per iteration: 2715 [mu s]
	Time per residual norm calculation: 1264.000000 [mu s]
	Time per iteration and DOF: 0.430465 [ns]
	Retrieve results bandwidth 2.793000 [GByte/s]
[OGL LOG][Proc: 0]p: solve_multi_gpu: 1282.022 [ms]
BJcudaGKOCG:  Solving for p, Initial residual = 0.2072221428343221, Final residual = 0.001053563516567724, No Iterations 469
time step continuity errors : sum local = 0.001367732110906958, global = 0.0002631907873259534, cumulative = 0.009444601017745163
smoothSolver:  Solving for nuTilda, Initial residual = 0.03067614584744174, Final residual = 0.001683812373782751, No Iterations 3
ExecutionTime = 130.36 s  ClockTime = 132 s

Time = 28

velocityDampingConstraint velocityDamping damped 0 (0%) of cells, with max limit 300
smoothSolver:  Solving for Ux, Initial residual = 0.006875747907613573, Final residual = 0.0005959866679925259, No Iterations 4
smoothSolver:  Solving for Uy, Initial residual = 0.01873805237223231, Final residual = 0.0017039411282635, No Iterations 4
smoothSolver:  Solving for Uz, Initial residual = 0.01953050350779802, Final residual = 0.001684058942888485, No Iterations 4
[OGL LOG][Proc: 0]: global_index_init: 0.175 [ms]
[OGL LOG][Proc: 0]p_local_coeffs: call_update: 0 [ms]
[OGL LOG][Proc: 0]p_non_local_coeffs: call_update: 0 [ms]
[OGL LOG][Proc: 0]p: update_local_matrix_data: 15.589 [ms]
[OGL LOG][Proc: 0]p: update_non_local_matrix_data: 0.461 [ms]
[OGL LOG][Proc: 0]p_matrix: call_update: 1.866 [ms]
[OGL LOG][Proc: 0]p_rhs: call_update: 0.651 [ms]
[OGL LOG][Preconditioner.H:121] Generate preconditioner BJ MaxBlockSize 1
[OGL LOG][Proc: 0]p: init_precond: 1.643 [ms]
[OGL LOG][StoppingCriterion.H:239] Creating stopping criterion with minIter 281 frequency 9
[OGL LOG][Proc: 0]p: generate_solver: 0.014 [ms]
[OGL LOG][Proc: 0]p: solve: 858.857 [ms]
[OGL LOG][Proc: 0]p: copy_x_back: 1.326 [ms]
[OGL LOG][lduLduBase.H:330] 
Statistics:
	Time per iteration: 2797 [mu s]
	Time per residual norm calculation: 1257.000000 [mu s]
	Time per iteration and DOF: 0.443466 [ns]
	Retrieve results bandwidth 2.875000 [GByte/s]
[OGL LOG][Proc: 0]p: solve_multi_gpu: 869.085 [ms]
BJcudaGKOCG:  Solving for p, Initial residual = 0.2000465667085221, Final residual = 0.001946652436403565, No Iterations 307
time step continuity errors : sum local = 0.002369361391530742, global = -0.0002358734049674866, cumulative = 0.009208727612777677
smoothSolver:  Solving for nuTilda, Initial residual = 0.01609339887685239, Final residual = 0.001013943715786465, No Iterations 4
ExecutionTime = 133.07 s  ClockTime = 135 s

Time = 29

velocityDampingConstraint velocityDamping damped 0 (0%) of cells, with max limit 300
smoothSolver:  Solving for Ux, Initial residual = 0.006652057006193569, Final residual = 0.0005759635206544145, No Iterations 4
smoothSolver:  Solving for Uy, Initial residual = 0.01891793660978117, Final residual = 0.001718285920768061, No Iterations 4
smoothSolver:  Solving for Uz, Initial residual = 0.01934042805893064, Final residual = 0.00168798561338602, No Iterations 4
[OGL LOG][Proc: 0]: global_index_init: 0.018 [ms]
[OGL LOG][Proc: 0]p_local_coeffs: call_update: 0 [ms]
[OGL LOG][Proc: 0]p_non_local_coeffs: call_update: 0 [ms]
[OGL LOG][Proc: 0]p: update_local_matrix_data: 18.479 [ms]
[OGL LOG][Proc: 0]p: update_non_local_matrix_data: 0.454 [ms]
[OGL LOG][Proc: 0]p_matrix: call_update: 5.505 [ms]
[OGL LOG][Proc: 0]p_rhs: call_update: 0.603 [ms]
[OGL LOG][Preconditioner.H:121] Generate preconditioner BJ MaxBlockSize 1
[OGL LOG][Proc: 0]p: init_precond: 3.393 [ms]
[OGL LOG][StoppingCriterion.H:239] Creating stopping criterion with minIter 184 frequency 7
[OGL LOG][Proc: 0]p: generate_solver: 0.015 [ms]
[OGL LOG][Proc: 0]p: solve: 2375.503 [ms]
[OGL LOG][Proc: 0]p: copy_x_back: 1.623 [ms]
[OGL LOG][lduLduBase.H:330] 
Statistics:
	Time per iteration: 3197 [mu s]
	Time per residual norm calculation: 1264.000000 [mu s]
	Time per iteration and DOF: 0.506886 [ns]
	Retrieve results bandwidth 2.349000 [GByte/s]
[OGL LOG][Proc: 0]p: solve_multi_gpu: 2390.25 [ms]
BJcudaGKOCG:  Solving for p, Initial residual = 0.1894904487018617, Final residual = 0.00181300871053228, No Iterations 743
time step continuity errors : sum local = 0.002115430084622424, global = -0.0001330648025288165, cumulative = 0.009075662810248861
smoothSolver:  Solving for nuTilda, Initial residual = 0.02863315723838267, Final residual = 0.001615848481240797, No Iterations 3
ExecutionTime = 137.29 s  ClockTime = 139 s

Time = 30

velocityDampingConstraint velocityDamping damped 0 (0%) of cells, with max limit 300
smoothSolver:  Solving for Ux, Initial residual = 0.006477404012971998, Final residual = 0.000574128835609103, No Iterations 4
smoothSolver:  Solving for Uy, Initial residual = 0.01872389686170135, Final residual = 0.001705784343991934, No Iterations 4
smoothSolver:  Solving for Uz, Initial residual = 0.01883236465888144, Final residual = 0.001640228983140382, No Iterations 4
[OGL LOG][Proc: 0]: global_index_init: 0.082 [ms]
[OGL LOG][Proc: 0]p_local_coeffs: call_update: 0 [ms]
[OGL LOG][Proc: 0]p_non_local_coeffs: call_update: 0 [ms]
[OGL LOG][Proc: 0]p: update_local_matrix_data: 15.982 [ms]
[OGL LOG][Proc: 0]p: update_non_local_matrix_data: 0.436 [ms]
[OGL LOG][Proc: 0]p_matrix: call_update: 1.817 [ms]
[OGL LOG][Proc: 0]p_rhs: call_update: 0.784 [ms]
[OGL LOG][Preconditioner.H:121] Generate preconditioner BJ MaxBlockSize 1
[OGL LOG][Proc: 0]p: init_precond: 1.649 [ms]
[OGL LOG][StoppingCriterion.H:239] Creating stopping criterion with minIter 445 frequency 12
[OGL LOG][Proc: 0]p: generate_solver: 0.015 [ms]
[OGL LOG][Proc: 0]p: solve: 1243.507 [ms]
[OGL LOG][Proc: 0]p: copy_x_back: 1.409 [ms]
[OGL LOG][lduLduBase.H:330] 
Statistics:
	Time per iteration: 2721 [mu s]
	Time per residual norm calculation: 967.000000 [mu s]
	Time per iteration and DOF: 0.431416 [ns]
	Retrieve results bandwidth 2.706000 [GByte/s]
[OGL LOG][Proc: 0]p: solve_multi_gpu: 1252.516 [ms]
BJcudaGKOCG:  Solving for p, Initial residual = 0.2515482103944167, Final residual = 0.001467256003009229, No Iterations 457
time step continuity errors : sum local = 0.001156590815813651, global = -0.0002094373186021155, cumulative = 0.008866225491646746
smoothSolver:  Solving for nuTilda, Initial residual = 0.01492400438007615, Final residual = 0.0009714151789374055, No Iterations 4
ExecutionTime = 140.39 s  ClockTime = 143 s

Time = 31

velocityDampingConstraint velocityDamping damped 0 (0%) of cells, with max limit 300
smoothSolver:  Solving for Ux, Initial residual = 0.006337996683755059, Final residual = 0.0005670379960465395, No Iterations 4
smoothSolver:  Solving for Uy, Initial residual = 0.01806117667776702, Final residual = 0.001668731267169509, No Iterations 4
smoothSolver:  Solving for Uz, Initial residual = 0.01821485697666691, Final residual = 0.001594551030556528, No Iterations 4
[OGL LOG][Proc: 0]: global_index_init: 0.018 [ms]
[OGL LOG][Proc: 0]p_local_coeffs: call_update: 0 [ms]
[OGL LOG][Proc: 0]p_non_local_coeffs: call_update: 0 [ms]
[OGL LOG][Proc: 0]p: update_local_matrix_data: 17.245 [ms]
[OGL LOG][Proc: 0]p: update_non_local_matrix_data: 0.433 [ms]
[OGL LOG][Proc: 0]p_matrix: call_update: 1.671 [ms]
[OGL LOG][Proc: 0]p_rhs: call_update: 0.859 [ms]
[OGL LOG][Preconditioner.H:121] Generate preconditioner BJ MaxBlockSize 1
[OGL LOG][Proc: 0]p: init_precond: 1.384 [ms]
[OGL LOG][StoppingCriterion.H:239] Creating stopping criterion with minIter 274 frequency 9
[OGL LOG][Proc: 0]p: generate_solver: 0.015 [ms]
[OGL LOG][Proc: 0]p: solve: 862.51 [ms]
[OGL LOG][Proc: 0]p: copy_x_back: 1.384 [ms]
[OGL LOG][lduLduBase.H:330] 
Statistics:
	Time per iteration: 2809 [mu s]
	Time per residual norm calculation: 972.000000 [mu s]
	Time per iteration and DOF: 0.445369 [ns]
	Retrieve results bandwidth 2.754000 [GByte/s]
[OGL LOG][Proc: 0]p: solve_multi_gpu: 870.438 [ms]
BJcudaGKOCG:  Solving for p, Initial residual = 0.2331347588405128, Final residual = 0.002155279616399457, No Iterations 307
time step continuity errors : sum local = 0.001655040358213032, global = 0.0001310417725561168, cumulative = 0.008997267264202862
smoothSolver:  Solving for nuTilda, Initial residual = 0.02670461749723323, Final residual = 0.001554005797833343, No Iterations 3
ExecutionTime = 143.11 s  ClockTime = 145 s

Time = 32

velocityDampingConstraint velocityDamping damped 0 (0%) of cells, with max limit 300
smoothSolver:  Solving for Ux, Initial residual = 0.00622133864347204, Final residual = 0.0005520391384351157, No Iterations 4
smoothSolver:  Solving for Uy, Initial residual = 0.01707290994739605, Final residual = 0.001581642628798124, No Iterations 4
smoothSolver:  Solving for Uz, Initial residual = 0.01715954083539369, Final residual = 0.001524087845993327, No Iterations 4
[OGL LOG][Proc: 0]: global_index_init: 0.229 [ms]
[OGL LOG][Proc: 0]p_local_coeffs: call_update: 0 [ms]
[OGL LOG][Proc: 0]p_non_local_coeffs: call_update: 0 [ms]
[OGL LOG][Proc: 0]p: update_local_matrix_data: 15.976 [ms]
[OGL LOG][Proc: 0]p: update_non_local_matrix_data: 0.423 [ms]
[OGL LOG][Proc: 0]p_matrix: call_update: 1.896 [ms]
[OGL LOG][Proc: 0]p_rhs: call_update: 0.703 [ms]
[OGL LOG][Preconditioner.H:121] Generate preconditioner BJ MaxBlockSize 1
[OGL LOG][Proc: 0]p: init_precond: 1.75 [ms]
[OGL LOG][StoppingCriterion.H:239] Creating stopping criterion with minIter 184 frequency 7
[OGL LOG][Proc: 0]p: generate_solver: 0.016 [ms]
[OGL LOG][Proc: 0]p: solve: 1957.693 [ms]
[OGL LOG][Proc: 0]p: copy_x_back: 1.756 [ms]
[OGL LOG][lduLduBase.H:330] 
Statistics:
	Time per iteration: 2765 [mu s]
	Time per residual norm calculation: 1264.000000 [mu s]
	Time per iteration and DOF: 0.438392 [ns]
	Retrieve results bandwidth 2.171000 [GByte/s]
[OGL LOG][Proc: 0]p: solve_multi_gpu: 1966.823 [ms]
BJcudaGKOCG:  Solving for p, Initial residual = 0.2209624363669653, Final residual = 0.002163948630388466, No Iterations 708
time step continuity errors : sum local = 0.001613959051806656, global = 4.056394699490498e-05, cumulative = 0.009037831211197767
smoothSolver:  Solving for nuTilda, Initial residual = 0.01394086053562849, Final residual = 0.0009319192458469175, No Iterations 4
ExecutionTime = 146.9 s  ClockTime = 149 s

Time = 33

velocityDampingConstraint velocityDamping damped 0 (0%) of cells, with max limit 300
smoothSolver:  Solving for Ux, Initial residual = 0.005905634219715, Final residual = 0.0005164247820936572, No Iterations 4
smoothSolver:  Solving for Uy, Initial residual = 0.01654893219028475, Final residual = 0.001527174455321459, No Iterations 4
smoothSolver:  Solving for Uz, Initial residual = 0.01652315787105742, Final residual = 0.001485847003067264, No Iterations 4
[OGL LOG][Proc: 0]: global_index_init: 0.055 [ms]
[OGL LOG][Proc: 0]p_local_coeffs: call_update: 0 [ms]
[OGL LOG][Proc: 0]p_non_local_coeffs: call_update: 0 [ms]
[OGL LOG][Proc: 0]p: update_local_matrix_data: 17.481 [ms]
[OGL LOG][Proc: 0]p: update_non_local_matrix_data: 0.466 [ms]
[OGL LOG][Proc: 0]p_matrix: call_update: 2.177 [ms]
[OGL LOG][Proc: 0]p_rhs: call_update: 0.451 [ms]
[OGL LOG][Preconditioner.H:121] Generate preconditioner BJ MaxBlockSize 1
[OGL LOG][Proc: 0]p: init_precond: 1.291 [ms]
[OGL LOG][StoppingCriterion.H:239] Creating stopping criterion with minIter 424 frequency 11
[OGL LOG][Proc: 0]p: generate_solver: 0.015 [ms]
[OGL LOG][Proc: 0]p: solve: 1156.14 [ms]
[OGL LOG][Proc: 0]p: copy_x_back: 1.317 [ms]
[OGL LOG][lduLduBase.H:330] 
Statistics:
	Time per iteration: 2688 [mu s]
	Time per residual norm calculation: 1260.000000 [mu s]
	Time per iteration and DOF: 0.426184 [ns]
	Retrieve results bandwidth 2.895000 [GByte/s]
[OGL LOG][Proc: 0]p: solve_multi_gpu: 1163.927 [ms]
BJcudaGKOCG:  Solving for p, Initial residual = 0.1555252574627825, Final residual = 0.001346525950671081, No Iterations 430
time step continuity errors : sum local = 0.001303701539448527, global = 0.0002033635958204941, cumulative = 0.009241194807018261
smoothSolver:  Solving for nuTilda, Initial residual = 0.02500856739765163, Final residual = 0.001494789025782616, No Iterations 3
ExecutionTime = 149.91 s  ClockTime = 152 s

Time = 34

velocityDampingConstraint velocityDamping damped 0 (0%) of cells, with max limit 300
smoothSolver:  Solving for Ux, Initial residual = 0.005543981393129831, Final residual = 0.000488134081997668, No Iterations 4
smoothSolver:  Solving for Uy, Initial residual = 0.01646941893742958, Final residual = 0.001519807560946986, No Iterations 4
smoothSolver:  Solving for Uz, Initial residual = 0.01639301139742484, Final residual = 0.001490430340569974, No Iterations 4
[OGL LOG][Proc: 0]: global_index_init: 0.165 [ms]
[OGL LOG][Proc: 0]p_local_coeffs: call_update: 0 [ms]
[OGL LOG][Proc: 0]p_non_local_coeffs: call_update: 0 [ms]
[OGL LOG][Proc: 0]p: update_local_matrix_data: 15.722 [ms]
[OGL LOG][Proc: 0]p: update_non_local_matrix_data: 0.453 [ms]
[OGL LOG][Proc: 0]p_matrix: call_update: 1.643 [ms]
[OGL LOG][Proc: 0]p_rhs: call_update: 0.976 [ms]
[OGL LOG][Preconditioner.H:121] Generate preconditioner BJ MaxBlockSize 1
[OGL LOG][Proc: 0]p: init_precond: 1.353 [ms]
[OGL LOG][StoppingCriterion.H:239] Creating stopping criterion with minIter 258 frequency 9
[OGL LOG][Proc: 0]p: generate_solver: 0.013 [ms]
[OGL LOG][Proc: 0]p: solve: 828.717 [ms]
[OGL LOG][Proc: 0]p: copy_x_back: 1.294 [ms]
[OGL LOG][lduLduBase.H:330] 
Statistics:
	Time per iteration: 2780 [mu s]
	Time per residual norm calculation: 1263.000000 [mu s]
	Time per iteration and DOF: 0.440771 [ns]
	Retrieve results bandwidth 2.946000 [GByte/s]
[OGL LOG][Proc: 0]p: solve_multi_gpu: 837.302 [ms]
BJcudaGKOCG:  Solving for p, Initial residual = 0.1509516158622287, Final residual = 0.001506422808088903, No Iterations 298
time step continuity errors : sum local = 0.001384168132884916, global = 9.10411221529885e-05, cumulative = 0.00933223592917125
smoothSolver:  Solving for nuTilda, Initial residual = 0.01307783770606306, Final residual = 0.0008928434904979578, No Iterations 4
ExecutionTime = 152.58 s  ClockTime = 155 s

Time = 35

velocityDampingConstraint velocityDamping damped 0 (0%) of cells, with max limit 300
smoothSolver:  Solving for Ux, Initial residual = 0.005377048935817052, Final residual = 0.0004775276543499587, No Iterations 4
smoothSolver:  Solving for Uy, Initial residual = 0.01635686633870811, Final residual = 0.001522385573556491, No Iterations 4
smoothSolver:  Solving for Uz, Initial residual = 0.01628735674787937, Final residual = 0.001487801997013103, No Iterations 4
[OGL LOG][Proc: 0]: global_index_init: 0.065 [ms]
[OGL LOG][Proc: 0]p_local_coeffs: call_update: 0 [ms]
[OGL LOG][Proc: 0]p_non_local_coeffs: call_update: 0 [ms]
[OGL LOG][Proc: 0]p: update_local_matrix_data: 17.543 [ms]
[OGL LOG][Proc: 0]p: update_non_local_matrix_data: 0.436 [ms]
[OGL LOG][Proc: 0]p_matrix: call_update: 1.79 [ms]
[OGL LOG][Proc: 0]p_rhs: call_update: 0.868 [ms]
[OGL LOG][Preconditioner.H:121] Generate preconditioner BJ MaxBlockSize 1
[OGL LOG][Proc: 0]p: init_precond: 1.72 [ms]
[OGL LOG][StoppingCriterion.H:239] Creating stopping criterion with minIter 178 frequency 7
[OGL LOG][Proc: 0]p: generate_solver: 0.016 [ms]
[OGL LOG][Proc: 0]p: solve: 889.61 [ms]
[OGL LOG][Proc: 0]p: copy_x_back: 1.379 [ms]
[OGL LOG][lduLduBase.H:330] 
Statistics:
	Time per iteration: 2878 [mu s]
	Time per residual norm calculation: 1266.000000 [mu s]
	Time per iteration and DOF: 0.456309 [ns]
	Retrieve results bandwidth 2.764000 [GByte/s]
[OGL LOG][Proc: 0]p: solve_multi_gpu: 897.934 [ms]
BJcudaGKOCG:  Solving for p, Initial residual = 0.1452318066187447, Final residual = 0.001381518943170271, No Iterations 309
[...]
[OGL LOG][Proc: 0]p: solve: 977.158 [ms]
[OGL LOG][Proc: 0]p: copy_x_back: 1.384 [ms]
[OGL LOG][lduLduBase.H:330] 
Statistics:
	Time per iteration: 2783 [mu s]
	Time per residual norm calculation: 1405.000000 [mu s]
	Time per iteration and DOF: 0.441246 [ns]
	Retrieve results bandwidth 2.754000 [GByte/s]
[OGL LOG][Proc: 0]p: solve_multi_gpu: 985.097 [ms]
BJcudaGKOCG:  Solving for p, Initial residual = 0.04806283156776264, Final residual = 0.0002211525767070123, No Iterations 351
time step continuity errors : sum local = 0.000158173528385291, global = 1.500597795603487e-05, cumulative = 0.008968300419451018
smoothSolver:  Solving for nuTilda, Initial residual = 0.006398671282512257, Final residual = 0.0004690753420561216, No Iterations 4
ExecutionTime = 319.47 s  ClockTime = 324 s

Time = 91

velocityDampingConstraint velocityDamping damped 0 (0%) of cells, with max limit 300
smoothSolver:  Solving for Ux, Initial residual = 0.002858368110604511, Final residual = 0.0002801810776269678, No Iterations 4
smoothSolver:  Solving for Uy, Initial residual = 0.01189213356158303, Final residual = 0.001151615299514664, No Iterations 4
smoothSolver:  Solving for Uz, Initial residual = 0.0129690283490325, Final residual = 0.001278122903655324, No Iterations 4
[OGL LOG][Proc: 0]: global_index_init: 0.044 [ms]
[OGL LOG][Proc: 0]p_local_coeffs: call_update: 0 [ms]
[OGL LOG][Proc: 0]p_non_local_coeffs: call_update: 0 [ms]
[OGL LOG][Proc: 0]p: update_local_matrix_data: 14.966 [ms]
[OGL LOG][Proc: 0]p: update_non_local_matrix_data: 0.423 [ms]
[OGL LOG][Proc: 0]p_matrix: call_update: 1.841 [ms]
[OGL LOG][Proc: 0]p_rhs: call_update: 0.723 [ms]
[OGL LOG][Preconditioner.H:121] Generate preconditioner BJ MaxBlockSize 1
[OGL LOG][Proc: 0]p: init_precond: 1.694 [ms]
[OGL LOG][StoppingCriterion.H:239] Creating stopping criterion with minIter 210 frequency 11
[OGL LOG][Proc: 0]p: generate_solver: 0.013 [ms]
[OGL LOG][Proc: 0]p: solve: 1643.56 [ms]
[OGL LOG][Proc: 0]p: copy_x_back: 1.368 [ms]
[OGL LOG][lduLduBase.H:330] 
Statistics:
	Time per iteration: 2762 [mu s]
	Time per residual norm calculation: 1266.000000 [mu s]
	Time per iteration and DOF: 0.437917 [ns]
	Retrieve results bandwidth 2.787000 [GByte/s]
[OGL LOG][Proc: 0]p: solve_multi_gpu: 1653.45 [ms]
BJcudaGKOCG:  Solving for p, Initial residual = 0.04737063378700675, Final residual = 0.0004389253331464413, No Iterations 595
time step continuity errors : sum local = 0.0003111132496307819, global = 9.399486332338314e-06, cumulative = 0.008977699905783355
smoothSolver:  Solving for nuTilda, Initial residual = 0.009392193913326999, Final residual = 0.0008205847507799237, No Iterations 3
ExecutionTime = 322.95 s  ClockTime = 327 s

Time = 92

velocityDampingConstraint velocityDamping damped 0 (0%) of cells, with max limit 300
smoothSolver:  Solving for Ux, Initial residual = 0.002803336049584082, Final residual = 0.0002774678929158187, No Iterations 4
smoothSolver:  Solving for Uy, Initial residual = 0.0119193289863826, Final residual = 0.001154816969566951, No Iterations 4
smoothSolver:  Solving for Uz, Initial residual = 0.01295245896422859, Final residual = 0.001280644638294647, No Iterations 4
[OGL LOG][Proc: 0]: global_index_init: 0.218 [ms]
[OGL LOG][Proc: 0]p_local_coeffs: call_update: 0 [ms]
[OGL LOG][Proc: 0]p_non_local_coeffs: call_update: 0 [ms]
[OGL LOG][Proc: 0]p: update_local_matrix_data: 15.786 [ms]
[OGL LOG][Proc: 0]p: update_non_local_matrix_data: 0.482 [ms]
[OGL LOG][Proc: 0]p_matrix: call_update: 2.089 [ms]
[OGL LOG][Proc: 0]p_rhs: call_update: 0.513 [ms]
[OGL LOG][Preconditioner.H:121] Generate preconditioner BJ MaxBlockSize 1
[OGL LOG][Proc: 0]p: init_precond: 1.594 [ms]
[OGL LOG][StoppingCriterion.H:239] Creating stopping criterion with minIter 357 frequency 10
[OGL LOG][Proc: 0]p: generate_solver: 0.014 [ms]
[OGL LOG][Proc: 0]p: solve: 990.254 [ms]
[OGL LOG][Proc: 0]p: copy_x_back: 1.736 [ms]
[OGL LOG][lduLduBase.H:330] 
Statistics:
	Time per iteration: 2743 [mu s]
	Time per residual norm calculation: 1269.000000 [mu s]
	Time per iteration and DOF: 0.434904 [ns]
	Retrieve results bandwidth 2.196000 [GByte/s]
[OGL LOG][Proc: 0]p: solve_multi_gpu: 999.52 [ms]
BJcudaGKOCG:  Solving for p, Initial residual = 0.04486688965649745, Final residual = 0.0002020135044478453, No Iterations 361
time step continuity errors : sum local = 0.0001485090611007659, global = 1.564428966476757e-05, cumulative = 0.008993344195448123
smoothSolver:  Solving for nuTilda, Initial residual = 0.006328700691530136, Final residual = 0.0004657053427754258, No Iterations 4
ExecutionTime = 325.77 s  ClockTime = 330 s

Time = 93

velocityDampingConstraint velocityDamping damped 0 (0%) of cells, with max limit 300
smoothSolver:  Solving for Ux, Initial residual = 0.002800811255963181, Final residual = 0.0002760032975753791, No Iterations 4
smoothSolver:  Solving for Uy, Initial residual = 0.01193704458921441, Final residual = 0.001157878286892655, No Iterations 4
smoothSolver:  Solving for Uz, Initial residual = 0.01292628184774952, Final residual = 0.001280321530320476, No Iterations 4
[OGL LOG][Proc: 0]: global_index_init: 0.026 [ms]
[OGL LOG][Proc: 0]p_local_coeffs: call_update: 0 [ms]
[OGL LOG][Proc: 0]p_non_local_coeffs: call_update: 0 [ms]
[OGL LOG][Proc: 0]p: update_local_matrix_data: 15.36 [ms]
[OGL LOG][Proc: 0]p: update_non_local_matrix_data: 0.502 [ms]
[OGL LOG][Proc: 0]p_matrix: call_update: 1.963 [ms]
[OGL LOG][Proc: 0]p_rhs: call_update: 0.48 [ms]
[OGL LOG][Preconditioner.H:121] Generate preconditioner BJ MaxBlockSize 1
[OGL LOG][Proc: 0]p: init_precond: 1.233 [ms]
[OGL LOG][StoppingCriterion.H:239] Creating stopping criterion with minIter 216 frequency 8
[OGL LOG][Proc: 0]p: generate_solver: 0.016 [ms]
[OGL LOG][Proc: 0]p: solve: 628.128 [ms]
[OGL LOG][Proc: 0]p: copy_x_back: 1.331 [ms]
[OGL LOG][lduLduBase.H:330] 
Statistics:
	Time per iteration: 2894 [mu s]
	Time per residual norm calculation: 1260.000000 [mu s]
	Time per iteration and DOF: 0.458845 [ns]
	Retrieve results bandwidth 2.864000 [GByte/s]
[OGL LOG][Proc: 0]p: solve_multi_gpu: 636.934 [ms]
BJcudaGKOCG:  Solving for p, Initial residual = 0.04355409710309602, Final residual = 0.0002777319466953547, No Iterations 217
time step continuity errors : sum local = 0.0002048517344776452, global = 1.019896925070656e-05, cumulative = 0.00900354316469883
smoothSolver:  Solving for nuTilda, Initial residual = 0.009172251682331132, Final residual = 0.0008147829459514352, No Iterations 3
ExecutionTime = 328.23 s  ClockTime = 332 s

Time = 94

velocityDampingConstraint velocityDamping damped 0 (0%) of cells, with max limit 300
smoothSolver:  Solving for Ux, Initial residual = 0.00276293216064797, Final residual = 0.0002737186052177483, No Iterations 4
smoothSolver:  Solving for Uy, Initial residual = 0.01195842557220518, Final residual = 0.001161870106096193, No Iterations 4
smoothSolver:  Solving for Uz, Initial residual = 0.01291024119623261, Final residual = 0.001280438814669798, No Iterations 4
[OGL LOG][Proc: 0]: global_index_init: 0.147 [ms]
[OGL LOG][Proc: 0]p_local_coeffs: call_update: 0 [ms]
[OGL LOG][Proc: 0]p_non_local_coeffs: call_update: 0 [ms]
[OGL LOG][Proc: 0]p: update_local_matrix_data: 15.333 [ms]
[OGL LOG][Proc: 0]p: update_non_local_matrix_data: 0.436 [ms]
[OGL LOG][Proc: 0]p_matrix: call_update: 2.099 [ms]
[OGL LOG][Proc: 0]p_rhs: call_update: 0.464 [ms]
[OGL LOG][Preconditioner.H:121] Generate preconditioner BJ MaxBlockSize 1
[OGL LOG][Proc: 0]p: init_precond: 1.285 [ms]
[OGL LOG][StoppingCriterion.H:239] Creating stopping criterion with minIter 130 frequency 6
[OGL LOG][Proc: 0]p: generate_solver: 0.015 [ms]
[OGL LOG][Proc: 0]p: solve: 1842.241 [ms]
[OGL LOG][Proc: 0]p: copy_x_back: 1.337 [ms]
[OGL LOG][lduLduBase.H:330] 
Statistics:
	Time per iteration: 2838 [mu s]
	Time per residual norm calculation: 1257.000000 [mu s]
	Time per iteration and DOF: 0.449967 [ns]
	Retrieve results bandwidth 2.851000 [GByte/s]
[OGL LOG][Proc: 0]p: solve_multi_gpu: 1851.445 [ms]
BJcudaGKOCG:  Solving for p, Initial residual = 0.04279434656457545, Final residual = 0.0004145469961206896, No Iterations 649
time step continuity errors : sum local = 0.0003056193403809232, global = -9.493216171026682e-06, cumulative = 0.008994049948527804
smoothSolver:  Solving for nuTilda, Initial residual = 0.006247944779733164, Final residual = 0.000460624005493788, No Iterations 4
ExecutionTime = 331.89 s  ClockTime = 336 s

Time = 95

velocityDampingConstraint velocityDamping damped 0 (0%) of cells, with max limit 300
smoothSolver:  Solving for Ux, Initial residual = 0.002765208805165435, Final residual = 0.0002726096071566759, No Iterations 4
smoothSolver:  Solving for Uy, Initial residual = 0.01196865470419053, Final residual = 0.001165069043506235, No Iterations 4
smoothSolver:  Solving for Uz, Initial residual = 0.01288784854886651, Final residual = 0.001280430575543472, No Iterations 4
[OGL LOG][Proc: 0]: global_index_init: 0.02 [ms]
[OGL LOG][Proc: 0]p_local_coeffs: call_update: 0 [ms]
[OGL LOG][Proc: 0]p_non_local_coeffs: call_update: 0 [ms]
[OGL LOG][Proc: 0]p: update_local_matrix_data: 16.126 [ms]
[OGL LOG][Proc: 0]p: update_non_local_matrix_data: 0.432 [ms]
[OGL LOG][Proc: 0]p_matrix: call_update: 2.2 [ms]
[OGL LOG][Proc: 0]p_rhs: call_update: 0.449 [ms]
[OGL LOG][Preconditioner.H:121] Generate preconditioner BJ MaxBlockSize 1
[OGL LOG][Proc: 0]p: init_precond: 1.348 [ms]
[OGL LOG][StoppingCriterion.H:239] Creating stopping criterion with minIter 389 frequency 11
[OGL LOG][Proc: 0]p: generate_solver: 0.017 [ms]
[OGL LOG][Proc: 0]p: solve: 1082.221 [ms]
[OGL LOG][Proc: 0]p: copy_x_back: 1.419 [ms]
[OGL LOG][lduLduBase.H:330] 
Statistics:
	Time per iteration: 2725 [mu s]
	Time per residual norm calculation: 977.000000 [mu s]
	Time per iteration and DOF: 0.432050 [ns]
	Retrieve results bandwidth 2.687000 [GByte/s]
[OGL LOG][Proc: 0]p: solve_multi_gpu: 1090.544 [ms]
BJcudaGKOCG:  Solving for p, Initial residual = 0.04274525775506041, Final residual = 0.0001315328297128999, No Iterations 397
time step continuity errors : sum local = 9.519220579962522e-05, global = -1.019527477871989e-05, cumulative = 0.008983854673749084
smoothSolver:  Solving for nuTilda, Initial residual = 0.008952755162922023, Final residual = 0.0008065851034000182, No Iterations 3
ExecutionTime = 334.8 s  ClockTime = 339 s

Time = 96

velocityDampingConstraint velocityDamping damped 0 (0%) of cells, with max limit 300
smoothSolver:  Solving for Ux, Initial residual = 0.002730607431298222, Final residual = 0.0002703970283415209, No Iterations 4
smoothSolver:  Solving for Uy, Initial residual = 0.01196251924707223, Final residual = 0.001166861723774501, No Iterations 4
smoothSolver:  Solving for Uz, Initial residual = 0.01286549992740843, Final residual = 0.001279032772614019, No Iterations 4
[OGL LOG][Proc: 0]: global_index_init: 0.165 [ms]
[OGL LOG][Proc: 0]p_local_coeffs: call_update: 0 [ms]
[OGL LOG][Proc: 0]p_non_local_coeffs: call_update: 0 [ms]
[OGL LOG][Proc: 0]p: update_local_matrix_data: 15.679 [ms]
[OGL LOG][Proc: 0]p: update_non_local_matrix_data: 0.428 [ms]
[OGL LOG][Proc: 0]p_matrix: call_update: 1.954 [ms]
[OGL LOG][Proc: 0]p_rhs: call_update: 0.446 [ms]
[OGL LOG][Preconditioner.H:121] Generate preconditioner BJ MaxBlockSize 1
[OGL LOG][Proc: 0]p: init_precond: 1.568 [ms]
[OGL LOG][StoppingCriterion.H:239] Creating stopping criterion with minIter 238 frequency 8
[OGL LOG][Proc: 0]p: generate_solver: 0.014 [ms]
[OGL LOG][Proc: 0]p: solve: 682.362 [ms]
[OGL LOG][Proc: 0]p: copy_x_back: 1.351 [ms]
[OGL LOG][lduLduBase.H:330] 
Statistics:
	Time per iteration: 2831 [mu s]
	Time per residual norm calculation: 979.000000 [mu s]
	Time per iteration and DOF: 0.448857 [ns]
	Retrieve results bandwidth 2.822000 [GByte/s]
[OGL LOG][Proc: 0]p: solve_multi_gpu: 690.688 [ms]
BJcudaGKOCG:  Solving for p, Initial residual = 0.04212653779414153, Final residual = 0.0002814906520446916, No Iterations 241
time step continuity errors : sum local = 0.0002021136854601406, global = -1.23877599532639e-05, cumulative = 0.008971466913795819
smoothSolver:  Solving for nuTilda, Initial residual = 0.006158440809286694, Final residual = 0.000454241052539337, No Iterations 4
ExecutionTime = 337.31 s  ClockTime = 341 s

Time = 97

velocityDampingConstraint velocityDamping damped 0 (0%) of cells, with max limit 300
smoothSolver:  Solving for Ux, Initial residual = 0.002732647557924471, Final residual = 0.0002686227476783635, No Iterations 4
smoothSolver:  Solving for Uy, Initial residual = 0.01194138205991109, Final residual = 0.001166797461799639, No Iterations 4
smoothSolver:  Solving for Uz, Initial residual = 0.01282552386519283, Final residual = 0.001274226729780384, No Iterations 4
[OGL LOG][Proc: 0]: global_index_init: 0.019 [ms]
[OGL LOG][Proc: 0]p_local_coeffs: call_update: 0 [ms]
[OGL LOG][Proc: 0]p_non_local_coeffs: call_update: 0 [ms]
[OGL LOG][Proc: 0]p: update_local_matrix_data: 15.572 [ms]
[OGL LOG][Proc: 0]p: update_non_local_matrix_data: 0.429 [ms]
[OGL LOG][Proc: 0]p_matrix: call_update: 2.078 [ms]
[OGL LOG][Proc: 0]p_rhs: call_update: 0.628 [ms]
[OGL LOG][Preconditioner.H:121] Generate preconditioner BJ MaxBlockSize 1
[OGL LOG][Proc: 0]p: init_precond: 1.827 [ms]
[OGL LOG][StoppingCriterion.H:239] Creating stopping criterion with minIter 144 frequency 6
[OGL LOG][Proc: 0]p: generate_solver: 0.024 [ms]
[OGL LOG][Proc: 0]p: solve: 757.912 [ms]
[OGL LOG][Proc: 0]p: copy_x_back: 1.333 [ms]
[OGL LOG][lduLduBase.H:330] 
Statistics:
	Time per iteration: 2926 [mu s]
	Time per residual norm calculation: 1267.000000 [mu s]
	Time per iteration and DOF: 0.463919 [ns]
	Retrieve results bandwidth 2.860000 [GByte/s]
[OGL LOG][Proc: 0]p: solve_multi_gpu: 767.064 [ms]
BJcudaGKOCG:  Solving for p, Initial residual = 0.04144446452668078, Final residual = 0.0004134059377530972, No Iterations 259
time step continuity errors : sum local = 0.000295077574322538, global = 2.553759529920637e-05, cumulative = 0.008997004509095026
smoothSolver:  Solving for nuTilda, Initial residual = 0.008732691912097426, Final residual = 0.0007966149117781915, No Iterations 3
ExecutionTime = 339.9 s  ClockTime = 344 s

Time = 98

velocityDampingConstraint velocityDamping damped 0 (0%) of cells, with max limit 300
smoothSolver:  Solving for Ux, Initial residual = 0.002690487321132735, Final residual = 0.0002655071416648459, No Iterations 4
smoothSolver:  Solving for Uy, Initial residual = 0.0119196548343162, Final residual = 0.001166696683659197, No Iterations 4
smoothSolver:  Solving for Uz, Initial residual = 0.01278942239842022, Final residual = 0.001269727956477115, No Iterations 4
[OGL LOG][Proc: 0]: global_index_init: 0.119 [ms]
[OGL LOG][Proc: 0]p_local_coeffs: call_update: 0 [ms]
[OGL LOG][Proc: 0]p_non_local_coeffs: call_update: 0 [ms]
[OGL LOG][Proc: 0]p: update_local_matrix_data: 16.763 [ms]
[OGL LOG][Proc: 0]p: update_non_local_matrix_data: 0.489 [ms]
[OGL LOG][Proc: 0]p_matrix: call_update: 2.181 [ms]
[OGL LOG][Proc: 0]p_rhs: call_update: 0.407 [ms]
[OGL LOG][Preconditioner.H:121] Generate preconditioner BJ MaxBlockSize 1
[OGL LOG][Proc: 0]p: init_precond: 1.283 [ms]
[OGL LOG][StoppingCriterion.H:239] Creating stopping criterion with minIter 155 frequency 7
[OGL LOG][Proc: 0]p: generate_solver: 0.015 [ms]
[OGL LOG][Proc: 0]p: solve: 503.827 [ms]
[OGL LOG][Proc: 0]p: copy_x_back: 1.342 [ms]
[OGL LOG][lduLduBase.H:330] 
Statistics:
	Time per iteration: 2981 [mu s]
	Time per residual norm calculation: 1257.000000 [mu s]
	Time per iteration and DOF: 0.472639 [ns]
	Retrieve results bandwidth 2.841000 [GByte/s]
[OGL LOG][Proc: 0]p: solve_multi_gpu: 511.656 [ms]
BJcudaGKOCG:  Solving for p, Initial residual = 0.04092464907896363, Final residual = 0.0004006168422916089, No Iterations 169
time step continuity errors : sum local = 0.0002843685212592203, global = 6.774727976467857e-05, cumulative = 0.009064751788859704
smoothSolver:  Solving for nuTilda, Initial residual = 0.00605750725106724, Final residual = 0.0004476650048378325, No Iterations 4
ExecutionTime = 342.22 s  ClockTime = 346 s

Time = 99

velocityDampingConstraint velocityDamping damped 0 (0%) of cells, with max limit 300
smoothSolver:  Solving for Ux, Initial residual = 0.002686310170560804, Final residual = 0.000263118708998635, No Iterations 4
smoothSolver:  Solving for Uy, Initial residual = 0.01189267120383101, Final residual = 0.001166318575469581, No Iterations 4
smoothSolver:  Solving for Uz, Initial residual = 0.01274132477133343, Final residual = 0.001263893461554219, No Iterations 4
[OGL LOG][Proc: 0]: global_index_init: 0.2 [ms]
[OGL LOG][Proc: 0]p_local_coeffs: call_update: 0 [ms]
[OGL LOG][Proc: 0]p_non_local_coeffs: call_update: 0 [ms]
[OGL LOG][Proc: 0]p: update_local_matrix_data: 14.974 [ms]
[OGL LOG][Proc: 0]p: update_non_local_matrix_data: 0.433 [ms]
[OGL LOG][Proc: 0]p_matrix: call_update: 1.828 [ms]
[OGL LOG][Proc: 0]p_rhs: call_update: 0.799 [ms]
[OGL LOG][Preconditioner.H:121] Generate preconditioner BJ MaxBlockSize 1
[OGL LOG][Proc: 0]p: init_precond: 1.644 [ms]
[OGL LOG][StoppingCriterion.H:239] Creating stopping criterion with minIter 101 frequency 5
[OGL LOG][Proc: 0]p: generate_solver: 0.013 [ms]
[OGL LOG][Proc: 0]p: solve: 2194.066 [ms]
[OGL LOG][Proc: 0]p: copy_x_back: 1.371 [ms]
[OGL LOG][lduLduBase.H:330] 
Statistics:
	Time per iteration: 3422 [mu s]
	Time per residual norm calculation: 1263.000000 [mu s]
	Time per iteration and DOF: 0.542560 [ns]
	Retrieve results bandwidth 2.781000 [GByte/s]
[OGL LOG][Proc: 0]p: solve_multi_gpu: 2206.613 [ms]
BJcudaGKOCG:  Solving for p, Initial residual = 0.0400717220100642, Final residual = 0.000391092247484347, No Iterations 641
time step continuity errors : sum local = 0.0002770790522643711, global = -4.160156693477234e-06, cumulative = 0.009060591632166227
smoothSolver:  Solving for nuTilda, Initial residual = 0.00850774773519487, Final residual = 0.0007861770300600308, No Iterations 3
ExecutionTime = 346.25 s  ClockTime = 350 s

Time = 100

velocityDampingConstraint velocityDamping damped 0 (0%) of cells, with max limit 300
smoothSolver:  Solving for Ux, Initial residual = 0.00263577311371884, Final residual = 0.0002591139889727345, No Iterations 4
smoothSolver:  Solving for Uy, Initial residual = 0.01187465002915903, Final residual = 0.001168144232253095, No Iterations 4
smoothSolver:  Solving for Uz, Initial residual = 0.01268662504744505, Final residual = 0.001258851218022195, No Iterations 4
[OGL LOG][Proc: 0]: global_index_init: 0.177 [ms]
[OGL LOG][Proc: 0]p_local_coeffs: call_update: 0 [ms]
[OGL LOG][Proc: 0]p_non_local_coeffs: call_update: 0 [ms]
[OGL LOG][Proc: 0]p: update_local_matrix_data: 16.35 [ms]
[OGL LOG][Proc: 0]p: update_non_local_matrix_data: 0.468 [ms]
[OGL LOG][Proc: 0]p_matrix: call_update: 1.661 [ms]
[OGL LOG][Proc: 0]p_rhs: call_update: 0.873 [ms]
[OGL LOG][Preconditioner.H:121] Generate preconditioner BJ MaxBlockSize 1
[OGL LOG][Proc: 0]p: init_precond: 1.517 [ms]
[OGL LOG][StoppingCriterion.H:239] Creating stopping criterion with minIter 384 frequency 11
[OGL LOG][Proc: 0]p: generate_solver: 0.014 [ms]
[OGL LOG][Proc: 0]p: solve: 1416.585 [ms]
[OGL LOG][Proc: 0]p: copy_x_back: 1.345 [ms]
[OGL LOG][lduLduBase.H:330] 
Statistics:
	Time per iteration: 2734 [mu s]
	Time per residual norm calculation: 1255.000000 [mu s]
	Time per iteration and DOF: 0.433477 [ns]
	Retrieve results bandwidth 2.834000 [GByte/s]
[OGL LOG][Proc: 0]p: solve_multi_gpu: 1424.792 [ms]
BJcudaGKOCG:  Solving for p, Initial residual = 0.03729708770825935, Final residual = 0.0003688586665828375, No Iterations 518
time step continuity errors : sum local = 0.0002770394787807608, global = -1.217235454135853e-05, cumulative = 0.009048419277624868
smoothSolver:  Solving for nuTilda, Initial residual = 0.005944697767146335, Final residual = 0.0004415322129228393, No Iterations 4
ExecutionTime = 349.47 s  ClockTime = 354 s

End

Finalising parallel run
