/*---------------------------------------------------------------------------*\
| =========                 |                                                 |
| \\      /  F ield         | OpenFOAM: The Open Source CFD Toolbox           |
|  \\    /   O peration     | Version:  2312                                  |
|   \\  /    A nd           | Website:  www.openfoam.com                      |
|    \\/     M anipulation  |                                                 |
\*---------------------------------------------------------------------------*/
Build  : a46b310f-20240104 OPENFOAM=2312 version=v2312
Arch   : "LSB;label=32;scalar=64"
Exec   : icoFoam -parallel -case /hppfs/scratch/0B/di35yan/lidDriven3D/workspace/01dda461ec33f016df08c8cbc44903c6/case
Date   : Feb 17 2024
Time   : 09:30:47
Host   : i20r02c06s08
PID    : 98847
I/O    : uncollated
Case   : /hppfs/scratch/0B/di35yan/lidDriven3D/workspace/01dda461ec33f016df08c8cbc44903c6/case
nProcs : 224
Hosts  :
(
    (i20r02c06s08 112)
    (i20r02c06s10 112)
)
Pstream initialized with:
    floatTransfer      : false
    nProcsSimpleSum    : 0
    nonBlockingExchange: 0 (tuning: 0)
    exchange algorithm : 0
    commsType          : nonBlocking
    polling iterations : 0
trapFpe: Floating point exception trapping enabled (FOAM_SIGFPE).
fileModificationChecking : Monitoring run-time modified files using timeStampMaster (fileModificationSkew 5, maxFileModificationPolls 20)
allowSystemOperations : Allowing user-supplied system call operations

// * * * * * * * * * * * * * * * * * * * * * * * * * * * * * * * * * * * * * //
Create time

--> FOAM Warning : 
    From void* Foam::dlLibraryTable::openLibrary(const Foam::fileName&, bool)
    in file db/dynamicLibrary/dlLibraryTable/dlLibraryTable.C at line 188
    Could not load "libpetscFoam.so"
libpetscFoam.so: cannot open shared object file: No such file or directory
Create mesh for time = 0


PISO: Operating solver in PISO mode

Reading transportProperties

Reading field p

Reading field U

Reading/calculating face flux field phi


Starting time loop

Time = 0.0005

Courant Number mean: 8.62851e-18 max: 8.67362e-15
DILUPBiCGStab:  Solving for Ux, Initial residual = 1, Final residual = 0.00631816, No Iterations 5
DILUPBiCGStab:  Solving for Uy:  solution singularity
DILUPBiCGStab:  Solving for Uz:  solution singularity
nonePCG:  Solving for p, Initial residual = 1, Final residual = 9.87568e-05, No Iterations 793
time step continuity errors : sum local = 2.06978e-08, global = 1.37591e-20, cumulative = 1.37591e-20
nonePCG:  Solving for p, Initial residual = 0.723636, Final residual = 9.66118e-05, No Iterations 782
time step continuity errors : sum local = 2.69438e-08, global = 1.17296e-20, cumulative = 2.54886e-20
ExecutionTime = 11.01 s  ClockTime = 15 s

Time = 0.001

Courant Number mean: 0.0213637 max: 0.377026
DILUPBiCGStab:  Solving for Ux, Initial residual = 0.149841, Final residual = 0.00318491, No Iterations 5
DILUPBiCGStab:  Solving for Uy, Initial residual = 0.369251, Final residual = 0.00618704, No Iterations 5
DILUPBiCGStab:  Solving for Uz, Initial residual = 0.982627, Final residual = 0.0174958, No Iterations 5
nonePCG:  Solving for p, Initial residual = 0.691961, Final residual = 9.83474e-05, No Iterations 776
time step continuity errors : sum local = 3.1434e-08, global = 2.30911e-20, cumulative = 4.85798e-20
nonePCG:  Solving for p, Initial residual = 0.619207, Final residual = 9.61336e-05, No Iterations 774
time step continuity errors : sum local = 3.13548e-08, global = 1.91677e-20, cumulative = 6.77475e-20
ExecutionTime = 11.13 s  ClockTime = 15 s

Time = 0.0015

Courant Number mean: 0.0323015 max: 0.440907
DILUPBiCGStab:  Solving for Ux, Initial residual = 0.0533539, Final residual = 0.000964314, No Iterations 5
DILUPBiCGStab:  Solving for Uy, Initial residual = 0.125623, Final residual = 0.00153522, No Iterations 5
DILUPBiCGStab:  Solving for Uz, Initial residual = 0.574745, Final residual = 0.00937781, No Iterations 5
nonePCG:  Solving for p, Initial residual = 0.63172, Final residual = 9.88904e-05, No Iterations 768
time step continuity errors : sum local = 2.27473e-08, global = 2.42757e-20, cumulative = 9.20232e-20
nonePCG:  Solving for p, Initial residual = 0.580021, Final residual = 9.44228e-05, No Iterations 767
time step continuity errors : sum local = 2.10885e-08, global = 3.31783e-20, cumulative = 1.25201e-19
ExecutionTime = 11.25 s  ClockTime = 15 s

Time = 0.002

Courant Number mean: 0.0386893 max: 0.452705
DILUPBiCGStab:  Solving for Ux, Initial residual = 0.0321214, Final residual = 0.000516341, No Iterations 5
DILUPBiCGStab:  Solving for Uy, Initial residual = 0.0818726, Final residual = 0.00109985, No Iterations 5
DILUPBiCGStab:  Solving for Uz, Initial residual = 0.283061, Final residual = 0.00371701, No Iterations 5
nonePCG:  Solving for p, Initial residual = 0.414585, Final residual = 9.6984e-05, No Iterations 762
time step continuity errors : sum local = 1.90549e-08, global = 3.01432e-20, cumulative = 1.55345e-19
nonePCG:  Solving for p, Initial residual = 0.353023, Final residual = 9.83741e-05, No Iterations 759
time step continuity errors : sum local = 1.95147e-08, global = 2.16141e-20, cumulative = 1.76959e-19
ExecutionTime = 11.37 s  ClockTime = 16 s

Time = 0.0025

Courant Number mean: 0.0437416 max: 0.459454
DILUPBiCGStab:  Solving for Ux, Initial residual = 0.0237109, Final residual = 0.000308498, No Iterations 5
DILUPBiCGStab:  Solving for Uy, Initial residual = 0.052016, Final residual = 0.000546857, No Iterations 5
DILUPBiCGStab:  Solving for Uz, Initial residual = 0.105401, Final residual = 0.0016609, No Iterations 5
nonePCG:  Solving for p, Initial residual = 0.315758, Final residual = 9.71165e-05, No Iterations 364
time step continuity errors : sum local = 1.79556e-08, global = 2.3557e-20, cumulative = 2.00516e-19
nonePCG:  Solving for p, Initial residual = 0.270947, Final residual = 9.6784e-05, No Iterations 357
time step continuity errors : sum local = 1.62071e-08, global = 2.9519e-20, cumulative = 2.30035e-19
ExecutionTime = 11.43 s  ClockTime = 16 s

Time = 0.003

Courant Number mean: 0.0477898 max: 0.463697
DILUPBiCGStab:  Solving for Ux, Initial residual = 0.0180425, Final residual = 0.000198245, No Iterations 5
DILUPBiCGStab:  Solving for Uy, Initial residual = 0.0404789, Final residual = 0.000333585, No Iterations 5
DILUPBiCGStab:  Solving for Uz, Initial residual = 0.0898033, Final residual = 0.0012539, No Iterations 5
nonePCG:  Solving for p, Initial residual = 0.194765, Final residual = 9.78222e-05, No Iterations 346
time step continuity errors : sum local = 1.52659e-08, global = 2.81529e-20, cumulative = 2.58188e-19
nonePCG:  Solving for p, Initial residual = 0.161969, Final residual = 9.3786e-05, No Iterations 345
time step continuity errors : sum local = 1.46929e-08, global = 2.29584e-20, cumulative = 2.81146e-19
ExecutionTime = 11.49 s  ClockTime = 16 s

Time = 0.0035

Courant Number mean: 0.0512101 max: 0.466604
DILUPBiCGStab:  Solving for Ux, Initial residual = 0.0147749, Final residual = 0.000134033, No Iterations 5
DILUPBiCGStab:  Solving for Uy, Initial residual = 0.0320225, Final residual = 0.000269579, No Iterations 5
DILUPBiCGStab:  Solving for Uz, Initial residual = 0.0611778, Final residual = 0.000719807, No Iterations 5
nonePCG:  Solving for p, Initial residual = 0.136469, Final residual = 9.78257e-05, No Iterations 704
time step continuity errors : sum local = 1.44493e-08, global = 2.87475e-20, cumulative = 3.09893e-19
nonePCG:  Solving for p, Initial residual = 0.114432, Final residual = 9.90289e-05, No Iterations 359
time step continuity errors : sum local = 1.69571e-08, global = 3.79967e-20, cumulative = 3.4789e-19
ExecutionTime = 11.58 s  ClockTime = 16 s

Time = 0.004

Courant Number mean: 0.0541609 max: 0.468819
DILUPBiCGStab:  Solving for Ux, Initial residual = 0.0123872, Final residual = 9.9814e-05, No Iterations 5
DILUPBiCGStab:  Solving for Uy, Initial residual = 0.0267493, Final residual = 0.000164025, No Iterations 5
DILUPBiCGStab:  Solving for Uz, Initial residual = 0.0543767, Final residual = 0.000575392, No Iterations 5
nonePCG:  Solving for p, Initial residual = 0.0869999, Final residual = 9.91012e-05, No Iterations 710
time step continuity errors : sum local = 1.43294e-08, global = 3.35808e-20, cumulative = 3.81471e-19
nonePCG:  Solving for p, Initial residual = 0.0720379, Final residual = 9.88326e-05, No Iterations 708
time step continuity errors : sum local = 1.42954e-08, global = 3.05638e-20, cumulative = 4.12035e-19
ExecutionTime = 11.69 s  ClockTime = 16 s

Time = 0.0045

Courant Number mean: 0.0567487 max: 0.470537
DILUPBiCGStab:  Solving for Ux, Initial residual = 0.0106323, Final residual = 7.42248e-05, No Iterations 5
DILUPBiCGStab:  Solving for Uy, Initial residual = 0.0228434, Final residual = 0.000146289, No Iterations 5
DILUPBiCGStab:  Solving for Uz, Initial residual = 0.0454512, Final residual = 0.000447359, No Iterations 5
nonePCG:  Solving for p, Initial residual = 0.0633772, Final residual = 9.78391e-05, No Iterations 705
time step continuity errors : sum local = 1.39447e-08, global = 2.41653e-20, cumulative = 4.362e-19
nonePCG:  Solving for p, Initial residual = 0.0531127, Final residual = 9.73571e-05, No Iterations 703
time step continuity errors : sum local = 1.38811e-08, global = 2.79191e-20, cumulative = 4.64119e-19
ExecutionTime = 11.8 s  ClockTime = 16 s

Time = 0.005

Courant Number mean: 0.0590553 max: 0.471939
DILUPBiCGStab:  Solving for Ux, Initial residual = 0.00930242, Final residual = 6.17077e-05, No Iterations 5
DILUPBiCGStab:  Solving for Uy, Initial residual = 0.0198562, Final residual = 0.000108028, No Iterations 5
DILUPBiCGStab:  Solving for Uz, Initial residual = 0.03958, Final residual = 0.000309654, No Iterations 5
nonePCG:  Solving for p, Initial residual = 0.041554, Final residual = 9.93378e-05, No Iterations 315
time step continuity errors : sum local = 1.4098e-08, global = 3.13214e-20, cumulative = 4.95441e-19
nonePCG:  Solving for p, Initial residual = 0.0352563, Final residual = 9.94293e-05, No Iterations 313
time step continuity errors : sum local = 1.4122e-08, global = 3.89336e-20, cumulative = 5.34374e-19
ExecutionTime = 11.86 s  ClockTime = 16 s

Time = 0.0055

Courant Number mean: 0.0611245 max: 0.473098
DILUPBiCGStab:  Solving for Ux, Initial residual = 0.00821033, Final residual = 5.05983e-05, No Iterations 5
DILUPBiCGStab:  Solving for Uy, Initial residual = 0.0175615, Final residual = 9.7768e-05, No Iterations 5
DILUPBiCGStab:  Solving for Uz, Initial residual = 0.0351694, Final residual = 0.000263378, No Iterations 5
nonePCG:  Solving for p, Initial residual = 0.0326295, Final residual = 9.90311e-05, No Iterations 311
time step continuity errors : sum local = 1.47657e-08, global = 2.7472e-20, cumulative = 5.61846e-19
nonePCG:  Solving for p, Initial residual = 0.0279451, Final residual = 9.66801e-05, No Iterations 308
time step continuity errors : sum local = 1.38106e-08, global = 4.64755e-20, cumulative = 6.08322e-19
ExecutionTime = 11.91 s  ClockTime = 16 s

Time = 0.006

Courant Number mean: 0.0630056 max: 0.474082
DILUPBiCGStab:  Solving for Ux, Initial residual = 0.00734553, Final residual = 4.43186e-05, No Iterations 5
DILUPBiCGStab:  Solving for Uy, Initial residual = 0.0156761, Final residual = 8.24233e-05, No Iterations 5
DILUPBiCGStab:  Solving for Uz, Initial residual = 0.0316134, Final residual = 0.000217081, No Iterations 5
nonePCG:  Solving for p, Initial residual = 0.0234381, Final residual = 9.76767e-05, No Iterations 308
time step continuity errors : sum local = 1.41193e-08, global = 4.64294e-20, cumulative = 6.54751e-19
nonePCG:  Solving for p, Initial residual = 0.020673, Final residual = 9.66138e-05, No Iterations 305
time step continuity errors : sum local = 1.36751e-08, global = 4.44541e-20, cumulative = 6.99205e-19
ExecutionTime = 11.97 s  ClockTime = 16 s

Time = 0.0065

Courant Number mean: 0.0647184 max: 0.474925
DILUPBiCGStab:  Solving for Ux, Initial residual = 0.00661297, Final residual = 3.83909e-05, No Iterations 5
DILUPBiCGStab:  Solving for Uy, Initial residual = 0.014132, Final residual = 7.48552e-05, No Iterations 5
DILUPBiCGStab:  Solving for Uz, Initial residual = 0.0289087, Final residual = 0.000194491, No Iterations 5
nonePCG:  Solving for p, Initial residual = 0.0194935, Final residual = 9.56065e-05, No Iterations 311
time step continuity errors : sum local = 1.46418e-08, global = 3.3477e-20, cumulative = 7.32682e-19
nonePCG:  Solving for p, Initial residual = 0.0173687, Final residual = 9.72936e-05, No Iterations 305
time step continuity errors : sum local = 1.40067e-08, global = 3.58658e-20, cumulative = 7.68548e-19
ExecutionTime = 12.03 s  ClockTime = 16 s

Time = 0.007

Courant Number mean: 0.0662933 max: 0.475661
DILUPBiCGStab:  Solving for Ux, Initial residual = 0.00600295, Final residual = 3.44984e-05, No Iterations 5
DILUPBiCGStab:  Solving for Uy, Initial residual = 0.0128371, Final residual = 6.638e-05, No Iterations 5
DILUPBiCGStab:  Solving for Uz, Initial residual = 0.026396, Final residual = 0.000177324, No Iterations 5
nonePCG:  Solving for p, Initial residual = 0.0156084, Final residual = 9.72588e-05, No Iterations 311
time step continuity errors : sum local = 1.46294e-08, global = 4.51982e-20, cumulative = 8.13746e-19
nonePCG:  Solving for p, Initial residual = 0.0143174, Final residual = 9.88608e-05, No Iterations 305
time step continuity errors : sum local = 1.40965e-08, global = 3.74342e-20, cumulative = 8.5118e-19
ExecutionTime = 12.09 s  ClockTime = 16 s

Time = 0.0075

Courant Number mean: 0.0677476 max: 0.476307
DILUPBiCGStab:  Solving for Ux, Initial residual = 0.00548055, Final residual = 3.08443e-05, No Iterations 5
DILUPBiCGStab:  Solving for Uy, Initial residual = 0.011724, Final residual = 6.07517e-05, No Iterations 5
DILUPBiCGStab:  Solving for Uz, Initial residual = 0.0245639, Final residual = 0.000166754, No Iterations 5
nonePCG:  Solving for p, Initial residual = 0.0137474, Final residual = 9.74231e-05, No Iterations 330
time step continuity errors : sum local = 1.56659e-08, global = 2.86835e-20, cumulative = 8.79864e-19
nonePCG:  Solving for p, Initial residual = 0.0126812, Final residual = 9.97193e-05, No Iterations 306
time step continuity errors : sum local = 1.45992e-08, global = 4.16577e-20, cumulative = 9.21522e-19
ExecutionTime = 12.16 s  ClockTime = 16 s

Time = 0.008

Courant Number mean: 0.0690915 max: 0.476881
DILUPBiCGStab:  Solving for Ux, Initial residual = 0.00502491, Final residual = 2.82473e-05, No Iterations 5
DILUPBiCGStab:  Solving for Uy, Initial residual = 0.0107848, Final residual = 5.52152e-05, No Iterations 5
DILUPBiCGStab:  Solving for Uz, Initial residual = 0.0226547, Final residual = 0.000163817, No Iterations 5
nonePCG:  Solving for p, Initial residual = 0.0120089, Final residual = 9.99635e-05, No Iterations 319
time step continuity errors : sum local = 1.60103e-08, global = 3.33339e-20, cumulative = 9.54855e-19
nonePCG:  Solving for p, Initial residual = 0.0112533, Final residual = 9.85437e-05, No Iterations 305
time step continuity errors : sum local = 1.43128e-08, global = 3.60285e-20, cumulative = 9.90884e-19
ExecutionTime = 12.21 s  ClockTime = 16 s

Time = 0.0085

Courant Number mean: 0.0703425 max: 0.477393
DILUPBiCGStab:  Solving for Ux, Initial residual = 0.00463877, Final residual = 2.58563e-05, No Iterations 5
DILUPBiCGStab:  Solving for Uy, Initial residual = 0.00993825, Final residual = 5.10084e-05, No Iterations 5
DILUPBiCGStab:  Solving for Uz, Initial residual = 0.0214373, Final residual = 0.000163804, No Iterations 5
nonePCG:  Solving for p, Initial residual = 0.0109757, Final residual = 9.9747e-05, No Iterations 688
time step continuity errors : sum local = 1.39448e-08, global = 2.96566e-20, cumulative = 1.02054e-18
nonePCG:  Solving for p, Initial residual = 0.0103441, Final residual = 9.78465e-05, No Iterations 686
time step continuity errors : sum local = 1.36843e-08, global = 2.59749e-20, cumulative = 1.04652e-18
ExecutionTime = 12.33 s  ClockTime = 16 s

Time = 0.009

Courant Number mean: 0.0715113 max: 0.477857
DILUPBiCGStab:  Solving for Ux, Initial residual = 0.00428746, Final residual = 2.39082e-05, No Iterations 5
DILUPBiCGStab:  Solving for Uy, Initial residual = 0.0092082, Final residual = 4.66531e-05, No Iterations 5
DILUPBiCGStab:  Solving for Uz, Initial residual = 0.0194525, Final residual = 0.000130835, No Iterations 5
nonePCG:  Solving for p, Initial residual = 0.0100682, Final residual = 9.83604e-05, No Iterations 295
time step continuity errors : sum local = 1.4762e-08, global = 3.49093e-20, cumulative = 1.08142e-18
nonePCG:  Solving for p, Initial residual = 0.00953198, Final residual = 9.90066e-05, No Iterations 289
time step continuity errors : sum local = 1.42415e-08, global = 3.69033e-20, cumulative = 1.11833e-18
ExecutionTime = 12.39 s  ClockTime = 17 s

Time = 0.0095

Courant Number mean: 0.0726032 max: 0.478274
DILUPBiCGStab:  Solving for Ux, Initial residual = 0.00397688, Final residual = 2.2043e-05, No Iterations 5
DILUPBiCGStab:  Solving for Uy, Initial residual = 0.00855944, Final residual = 4.31558e-05, No Iterations 5
DILUPBiCGStab:  Solving for Uz, Initial residual = 0.0180699, Final residual = 0.000115101, No Iterations 5
nonePCG:  Solving for p, Initial residual = 0.00900597, Final residual = 9.93027e-05, No Iterations 300
time step continuity errors : sum local = 1.5243e-08, global = 4.06029e-20, cumulative = 1.15893e-18
nonePCG:  Solving for p, Initial residual = 0.00856794, Final residual = 9.77669e-05, No Iterations 290
time step continuity errors : sum local = 1.39901e-08, global = 2.5295e-20, cumulative = 1.18423e-18
ExecutionTime = 12.44 s  ClockTime = 17 s

Time = 0.01

Courant Number mean: 0.0736252 max: 0.478655
DILUPBiCGStab:  Solving for Ux, Initial residual = 0.00369915, Final residual = 2.05847e-05, No Iterations 5
DILUPBiCGStab:  Solving for Uy, Initial residual = 0.00799348, Final residual = 4.00905e-05, No Iterations 5
DILUPBiCGStab:  Solving for Uz, Initial residual = 0.0169509, Final residual = 0.000114854, No Iterations 5
nonePCG:  Solving for p, Initial residual = 0.00841119, Final residual = 9.94394e-05, No Iterations 307
time step continuity errors : sum local = 1.57056e-08, global = 2.91306e-20, cumulative = 1.21336e-18
nonePCG:  Solving for p, Initial residual = 0.00801386, Final residual = 9.81832e-05, No Iterations 297
time step continuity errors : sum local = 1.43447e-08, global = 2.74402e-20, cumulative = 1.2408e-18
ExecutionTime = 12.5 s  ClockTime = 17 s

End

Finalising parallel run
