/*---------------------------------------------------------------------------*\
| =========                 |                                                 |
| \\      /  F ield         | OpenFOAM: The Open Source CFD Toolbox           |
|  \\    /   O peration     | Version:  2212                                  |
|   \\  /    A nd           | Website:  www.openfoam.com                      |
|    \\/     M anipulation  |                                                 |
\*---------------------------------------------------------------------------*/
Build  : 5614a57-20230228 OPENFOAM=2212 patch=230110 version=v2212
Arch   : "LSB;label=32;scalar=64"
Exec   : icoFoam -parallel -case /home/greole/data/code/exasim-project/micro_benchmarks/LidDrivenCavity3D/workspace/0db7680d7239a061fa32e5131e58e9cf/case
Date   : Jun 30 2023
Time   : 09:13:36
Host   : guyot
PID    : 1554537
I/O    : uncollated
Case   : /home/greole/data/code/exasim-project/micro_benchmarks/LidDrivenCavity3D/workspace/0db7680d7239a061fa32e5131e58e9cf/case
nProcs : 128
Hosts  :
(
    (guyot 128)
)
Pstream initialized with:
    floatTransfer      : 0
    nProcsSimpleSum    : 0
    commsType          : nonBlocking
    polling iterations : 0
trapFpe: Floating point exception trapping enabled (FOAM_SIGFPE).
fileModificationChecking : Monitoring run-time modified files using timeStampMaster (fileModificationSkew 5, maxFileModificationPolls 20)
allowSystemOperations : Allowing user-supplied system call operations

// * * * * * * * * * * * * * * * * * * * * * * * * * * * * * * * * * * * * * //
Create time

--> FOAM Warning : 
    From void* Foam::dlLibraryTable::openLibrary(const Foam::fileName&, bool)
    in file db/dynamicLibrary/dlLibraryTable/dlLibraryTable.C at line 188
    Could not load "libpetscFoam.so"
libpetscFoam.so: cannot open shared object file: No such file or directory
Create mesh for time = 0


PISO: Operating solver in PISO mode

Reading transportProperties

Reading field p

Reading field U

Reading/calculating face flux field phi


Starting time loop

Time = 0.000125

Courant Number mean: 8.02505e-18 max: 4.85723e-14
DILUPBiCGStab:  Solving for Ux, Initial residual = 1, Final residual = 0.0227066, No Iterations 5
DILUPBiCGStab:  Solving for Uy:  solution singularity
DILUPBiCGStab:  Solving for Uz:  solution singularity
[OGL LOG][lduLduBase.H:121] Initialising OGL
	OGL commit:  e496ca7+
	Branch: cyclic-fix-asym 
	Build type: Debug
	Ginkgo version: 1.5.0 ( develop)
	Ginkgo commit: 4292ffdee
	MPI is GPU aware: 1
	Forces host buffer based communication: 1
	CPU ranks per GPU: 1
	Matrix format: Coo
	End OGL_INFO
 cuda init
 device_id 36
 num devices  get__num_devices 
 cuda init
 device_id 37
 num devices  get__num_devices 
 cuda init
 device_id 38
 num devices  get__num_devices 
 cuda init
 device_id 39
 num devices  get__num_devices 
 cuda init
 device_id 100
 num devices  get__num_devices 
 cuda init
 device_id 101
 num devices  get__num_devices 
 cuda init
 device_id 102
 num devices  get__num_devices 
 cuda init
 device_id 103
 num devices  get__num_devices 
 cuda init
 device_id 52
 num devices  get__num_devices 
 cuda init
 device_id 53
 num devices  get__num_devices 
 cuda init
 device_id 54
 num devices  get__num_devices 
 cuda init
 device_id 55
 num devices  get__num_devices 
 cuda init
 device_id 104
 num devices  get__num_devices 
 cuda init
 device_id 105
 num devices  get__num_devices 
 cuda init
 device_id 106
 num devices  get__num_devices 
 cuda init
 device_id 107
 num devices  get__num_devices 
 cuda init
 device_id 108
 num devices  get__num_devices 
 cuda init
 device_id 109
 num devices  get__num_devices 
 cuda init
 device_id 110
 num devices  get__num_devices 
 cuda init
 device_id 111
 num devices  get__num_devices 
 cuda init
 device_id 0
 num devices  get__num_devices 
 cuda init
 device_id 1
 num devices  get__num_devices 
 cuda init
 device_id 2
 num devices  get__num_devices 
 cuda init
 device_id 3
 num devices  get__num_devices 
 cuda init
 device_id 4
 num devices  get__num_devices 
 cuda init
 device_id 5
 num devices  get__num_devices 
 cuda init
 device_id 6
 num devices  get__num_devices 
 cuda init
 device_id 7
 num devices  get__num_devices 
 cuda init
 device_id 12
 num devices  get__num_devices 
 cuda init
 device_id 13
 num devices  get__num_devices 
 cuda init
 device_id 14
 num devices  get__num_devices 
 cuda init
 device_id 15
 num devices  get__num_devices 
 cuda init
 device_id 44
 num devices  get__num_devices 
 cuda init
 device_id 45
 num devices  get__num_devices 
 cuda init
 device_id 46
 num devices  get__num_devices 
 cuda init
 device_id 47
 num devices  get__num_devices 
 cuda init
 device_id 48
 num devices  get__num_devices 
 cuda init
 device_id 49
 num devices  get__num_devices 
 cuda init
 device_id 50
 num devices  get__num_devices 
 cuda init
 device_id 51
 num devices  get__num_devices 
 cuda init
 device_id 56
 num devices  get__num_devices 
 cuda init
 device_id 57
 num devices  get__num_devices 
 cuda init
 device_id 58
 num devices  get__num_devices 
 cuda init
 device_id 59
 num devices  get__num_devices 
 cuda init
 device_id 60
 num devices  get__num_devices 
 cuda init
 device_id 61
 num devices  get__num_devices 
 cuda init
 device_id 62
 num devices  get__num_devices 
 cuda init
 device_id 63
 num devices  get__num_devices 
 cuda init
 device_id 64
 num devices  get__num_devices 
 cuda init
 device_id 65
 num devices  get__num_devices 
 cuda init
 device_id 66
 num devices  get__num_devices 
 cuda init
 device_id 67
 num devices  get__num_devices 
 cuda init
 device_id 120
 num devices  get__num_devices 
 cuda init
 device_id 121
 num devices  get__num_devices 
 cuda init
 device_id 122
 num devices  get__num_devices 
 cuda init
 device_id 123
 num devices  get__num_devices 
 cuda init
 device_id 8
 num devices  get__num_devices 
 cuda init
 device_id 9
 num devices  get__num_devices 
 cuda init
 device_id 10
 num devices  get__num_devices 
 cuda init
 device_id 11
 num devices  get__num_devices 
 cuda init
 device_id 23
 num devices  get__num_devices 
 cuda init
 device_id 24
 num devices  get__num_devices 
 cuda init
 device_id 25
 num devices  get__num_devices 
 cuda init
 device_id 26
 num devices  get__num_devices 
 cuda init
 device_id 27
 num devices  get__num_devices 
 cuda init
 device_id 32
 num devices  get__num_devices 
 cuda init
 device_id 33
 num devices  get__num_devices 
 cuda init
 device_id 34
 num devices  get__num_devices 
 cuda init
 device_id 35
 num devices  get__num_devices 
 cuda init
 device_id 40
 num devices  get__num_devices 
 cuda init
 device_id 41
 num devices  get__num_devices 
 cuda init
 device_id 42
 num devices  get__num_devices 
 cuda init
 device_id 43
 num devices  get__num_devices 
 cuda init
 device_id 72
 num devices  get__num_devices 
 cuda init
 device_id 73
 num devices  get__num_devices 
 cuda init
 device_id 74
 num devices  get__num_devices 
 cuda init
 device_id 75
 num devices  get__num_devices 
 cuda init
 device_id 80
 num devices  get__num_devices 
 cuda init
 device_id 81
 num devices  get__num_devices 
 cuda init
 device_id 82
 num devices  get__num_devices 
 cuda init
 device_id 83
 num devices  get__num_devices 
 cuda init
 device_id 96
 num devices  get__num_devices 
 cuda init
 device_id 97
 num devices  get__num_devices 
 cuda init
 device_id 98
 num devices  get__num_devices 
 cuda init
 device_id 99
 num devices  get__num_devices 
 cuda init
 device_id 20
 num devices  get__num_devices 
 cuda init
 device_id 21
 num devices  get__num_devices 
 cuda init
 device_id 22
 num devices  get__num_devices 
 cuda init
 device_id 84
 num devices  get__num_devices 
 cuda init
 device_id 85
 num devices  get__num_devices 
 cuda init
 device_id 86
 num devices  get__num_devices 
 cuda init
 device_id 87
 num devices  get__num_devices 
 cuda init
 device_id 88
 num devices  get__num_devices 
 cuda init
 device_id 89
 num devices  get__num_devices 
 cuda init
 device_id 90
 num devices  get__num_devices 
 cuda init
 device_id 91
 num devices  get__num_devices 
 cuda init
 device_id 92
 num devices  get__num_devices 
 cuda init
 device_id 93
 num devices  get__num_devices 
 cuda init
 device_id 94
 num devices  get__num_devices 
 cuda init
 device_id 95
 num devices  get__num_devices 
 cuda init
 device_id 112
 num devices  get__num_devices 
 cuda init
 device_id 113
 num devices  get__num_devices 
 cuda init
 device_id 114
 num devices  get__num_devices 
 cuda init
 device_id 115
 num devices  get__num_devices 
 cuda init
 device_id 116
 num devices  get__num_devices 
 cuda init
 device_id 117
 num devices  get__num_devices 
 cuda init
 device_id 118
 num devices  get__num_devices 
 cuda init
 device_id 119
 num devices  get__num_devices 
 cuda init
 device_id 124
 num devices  get__num_devices 
 cuda init
 device_id 125
 num devices  get__num_devices 
 cuda init
 device_id 126
 num devices  get__num_devices 
 cuda init
 device_id 127
 num devices  get__num_devices 
 cuda init
 device_id 16
 num devices  get__num_devices 
 cuda init
 device_id 17
 num devices  get__num_devices 
 cuda init
 device_id 18
 num devices  get__num_devices 
 cuda init
 device_id 19
 num devices  get__num_devices 
 cuda init
 device_id 68
 num devices  get__num_devices 
 cuda init
 device_id 69
 num devices  get__num_devices 
 cuda init
 device_id 70
 num devices  get__num_devices 
 cuda init
 device_id 71
 num devices  get__num_devices 
 cuda init
 device_id 76
 num devices  get__num_devices 
 cuda init
 device_id 77
 num devices  get__num_devices 
 cuda init
 device_id 78
 num devices  get__num_devices 
 cuda init
 device_id 79
 num devices  get__num_devices 
 cuda init
 device_id 28
 num devices  get__num_devices 
 cuda init
 device_id 29
 num devices  get__num_devices 
 cuda init
 device_id 30
 num devices  get__num_devices 
 cuda init
 device_id 31
 num devices  get__num_devices 
 8
 get__num_devices 
  get__num_devices 
 8
 get__num_devices 
  get__num_devices 
 8
 get__num_devices 
  get__num_devices 
  get__num_devices 
  get__num_devices 
 8
 get__num_devices 
  get__num_devices 
 8
 get__num_devices 
  get__num_devices 
 8
 get__num_devices 
  get__num_devices 
  get__num_devices 
  get__num_devices 
 8
 get__num_devices 
  get__num_devices 
 8
 get__num_devices 
  get__num_devices 
 8
 get__num_devices 
  get__num_devices 
 8
 get__num_devices 
  get__num_devices 
 8
 get__num_devices 
  get__num_devices 
 8
 get__num_devices 
  get__num_devices 
 8
 get__num_devices 
  get__num_devices 
 8
 get__num_devices 
  get__num_devices 
 8
 get__num_devices 
  get__num_devices 
 8
 get__num_devices 
  get__num_devices 
 8
 get__num_devices 
  get__num_devices 
 8
 get__num_devices 
  get__num_devices 
 8
 get__num_devices 
  get__num_devices 
 8
 get__num_devices 
  get__num_devices 
 8
 get__num_devices 
  get__num_devices 
  get__num_devices 
  get__num_devices 
 8
 get__num_devices 
  get__num_devices 
 8
 get__num_devices 
  get__num_devices 
  get__num_devices 
  get__num_devices 
 8
 get__num_devices 
  get__num_devices 
 8
 get__num_devices 
  get__num_devices 
 8
 get__num_devices 
  get__num_devices 
 8
 get__num_devices 
  get__num_devices 
 8
 get__num_devices 
  get__num_devices 
 8
 get__num_devices 
  get__num_devices 
 8
 get__num_devices 
  get__num_devices 
 8
 get__num_devices 
  get__num_devices 
 8
 get__num_devices 
  get__num_devices 
 8
 get__num_devices 
  get__num_devices 
 8
 get__num_devices 
  get__num_devices 
 8
 get__num_devices 
  get__num_devices 
 8
 get__num_devices 
  get__num_devices 
 8
 get__num_devices 
  get__num_devices 
 8
 get__num_devices 
  get__num_devices 
 8
 get__num_devices 
  get__num_devices 
 8
 get__num_devices 
  get__num_devices 
 8
 get__num_devices 
  get__num_devices 
 8
 get__num_devices 
  get__num_devices 
 8
 get__num_devices 
  get__num_devices 
 8
 get__num_devices 
  get__num_devices 
 8
 get__num_devices 
  get__num_devices 
 8
 get__num_devices 
  get__num_devices 
 8
 get__num_devices 
  get__num_devices 
 8
 get__num_devices 
  get__num_devices 
 8
 get__num_devices 
  get__num_devices 
 8
 get__num_devices 
  get__num_devices 
 8
 get__num_devices 
  get__num_devices 
 8
 get__num_devices 
  get__num_devices 
 8
 get__num_devices 
  get__num_devices 
 8
 get__num_devices 
  get__num_devices 
 8
 get__num_devices 
  get__num_devices 
 8
 get__num_devices 
  get__num_devices 
 8
 get__num_devices 
  get__num_devices 
 8
 get__num_devices 
  get__num_devices 
  get__num_devices 
  get__num_devices 
 8
 get__num_devices 
  get__num_devices 
 8
 get__num_devices 
  get__num_devices 
 8
 get__num_devices 
  get__num_devices 
  get__num_devices 
  get__num_devices 
 8
 get__num_devices 
  get__num_devices 
 8
 get__num_devices 
  get__num_devices 
 8
 get__num_devices 
  get__num_devices 
 8
 get__num_devices 
  get__num_devices 
 8
 get__num_devices 
  get__num_devices 
 8
 get__num_devices 
  get__num_devices 
 8
 get__num_devices 
  get__num_devices 
 8
 get__num_devices 
  get__num_devices 
 8
 get__num_devices 
  get__num_devices 
 8
 get__num_devices 
  get__num_devices 
 8
 get__num_devices 
  get__num_devices 
  get__num_devices 
  get__num_devices 
 8
 get__num_devices 
  get__num_devices 
 8
 get__num_devices 
  get__num_devices 
 8
 get__num_devices 
  get__num_devices 
 8
 get__num_devices 
  get__num_devices 
 8
 get__num_devices 
  get__num_devices 
  get__num_devices 
  get__num_devices 
 8
 get__num_devices 
  get__num_devices 
 8
 get__num_devices 
  get__num_devices 
  get__num_devices 
  get__num_devices 
 8
 get__num_devices 
  get__num_devices 
 8
 get__num_devices 
  get__num_devices 
 8
 get__num_devices 
  get__num_devices 
 8
 get__num_devices 
  get__num_devices 
 8
 get__num_devices 
  get__num_devices 
 8
 get__num_devices 
  get__num_devices 
 8
 get__num_devices 
  get__num_devices 
  get__num_devices 
  get__num_devices 
 8
 get__num_devices 
 8
  get__num_devices 
 get__num_devices 
  get__num_devices 
 8
 get__num_devices 
  get__num_devices 
 8
 get__num_devices 
  get__num_devices 
 8
 get__num_devices 
  get__num_devices 
 8
 get__num_devices 
  get__num_devices 
 8
 get__num_devices 
  get__num_devices 
 8
 get__num_devices 
  get__num_devices 
 8
 get__num_devices 
  get__num_devices 
 8
 get__num_devices 
  get__num_devices 
 8
 get__num_devices 
  get__num_devices 
 8
 get__num_devices 
  get__num_devices 
 8
 get__num_devices 
  get__num_devices 
 8
 get__num_devices 
  get__num_devices 
  get__num_devices 
  get__num_devices 
 8
 get__num_devices 
  get__num_devices 
 8
 get__num_devices 
  get__num_devices 
 8
 get__num_devices 
  get__num_devices 
  get__num_devices 
  get__num_devices 
 8
 get__num_devices 
  get__num_devices 
 8
 get__num_devices 
  get__num_devices 
 8
 get__num_devices 
  get__num_devices 
 8
 get__num_devices 
  get__num_devices 
 8
 get__num_devices 
  get__num_devices 
 8
 get__num_devices 
  get__num_devices 
 8
 get__num_devices 
  get__num_devices 
 8
 get__num_devices 
  get__num_devices 
 8
 get__num_devices 
  get__num_devices 
 8
 get__num_devices 
  get__num_devices 
  get__num_devices 
  get__num_devices 
 8
 get__num_devices 
  get__num_devices 
 8
 get__num_devices 
  get__num_devices 
 8
 get__num_devices 
  get__num_devices 
 8
 get__num_devices 
  get__num_devices 
 8
 get__num_devices 
  get__num_devices 
 8
 get__num_devices 
  get__num_devices 
  get__num_devices 
  get__num_devices 
 8
 get__num_devices 
  get__num_devices 
 8
 get__num_devices 
  get__num_devices 
 8
 get__num_devices 
  get__num_devices 
  get__num_devices 
  get__num_devices 
 8
 get__num_devices 
  get__num_devices 
 8
 get__num_devices 
  get__num_devices 
 8
 get__num_devices 
  get__num_devices 
 8
 get__num_devices 
  get__num_devices 
  get__num_devices 
  get__num_devices 
 8
 get__num_devices 
  get__num_devices 
 8
 get__num_devices 
  get__num_devices 
 Unrecoverable CUDA error while resetting the device id to 0 in ~cuda_scoped_device_id_guard: cudaErrorMemoryAllocation: out of memory
Exiting program
Unrecoverable CUDA error while resetting the device id to 0 in ~cuda_scoped_device_id_guard: cudaErrorMemoryAllocation: out of memory
Exiting program
  Unrecoverable CUDA error while resetting the device id to 0 in ~cuda_scoped_device_id_guard: cudaErrorMemoryAllocation: out of memory
Exiting program
 Unrecoverable CUDA error while resetting the device id to 0 in ~cuda_scoped_device_id_guard: cudaErrorMemoryAllocation: out of memory
Exiting program
 Unrecoverable CUDA error while resetting the device id to 0 in ~cuda_scoped_device_id_guard: cudaErrorMemoryAllocation: out of memory
Exiting program
Unrecoverable CUDA error while resetting the device id to 0 in ~cuda_scoped_device_id_guard: cudaErrorMemoryAllocation: out of memory
Exiting program
  Unrecoverable CUDA error while resetting the device id to 0 in ~cuda_scoped_device_id_guard: cudaErrorMemoryAllocation: out of memory
Exiting program
Unrecoverable CUDA error while resetting the device id to 0 in ~cuda_scoped_device_id_guard: cudaErrorMemoryAllocation: out of memory
Exiting program
  Unrecoverable CUDA error while resetting the device id to 0 in ~cuda_scoped_device_id_guard: cudaErrorMemoryAllocation: out of memory
Exiting program
 Unrecoverable CUDA error while resetting the device id to 0 in ~cuda_scoped_device_id_guard: cudaErrorMemoryAllocation: out of memory
Exiting program
Unrecoverable CUDA error while resetting the device id to 0 in ~cuda_scoped_device_id_guard: cudaErrorMemoryAllocation: out of memory
Exiting program
  Unrecoverable CUDA error while resetting the device id to 0 in ~cuda_scoped_device_id_guard: cudaErrorMemoryAllocation: out of memory
Exiting program
 Unrecoverable CUDA error while resetting the device id to 0 in ~cuda_scoped_device_id_guard: cudaErrorMemoryAllocation: out of memory
Exiting program
 Unrecoverable CUDA error while resetting the device id to 0 in ~cuda_scoped_device_id_guard: cudaErrorMemoryAllocation: out of memory
Exiting program
 Unrecoverable CUDA error while resetting the device id to 0 in ~cuda_scoped_device_id_guard: cudaErrorMemoryAllocation: out of memory
Exiting program
Unrecoverable CUDA error while resetting the device id to 0 in ~cuda_scoped_device_id_guard: cudaErrorMemoryAllocation: out of memory
Exiting program
 Unrecoverable CUDA error while resetting the device id to 0 in ~cuda_scoped_device_id_guard: cudaErrorMemoryAllocation: out of memory
Exiting program
  Unrecoverable CUDA error while resetting the device id to 0 in ~cuda_scoped_device_id_guard: cudaErrorMemoryAllocation: out of memory
Exiting program
 Unrecoverable CUDA error while resetting the device id to 0 in ~cuda_scoped_device_id_guard: cudaErrorMemoryAllocation: out of memory
Exiting program
 Unrecoverable CUDA error while resetting the device id to 0 in ~cuda_scoped_device_id_guard: cudaErrorMemoryAllocation: out of memory
Exiting program
 Unrecoverable CUDA error while resetting the device id to 0 in ~cuda_scoped_device_id_guard: cudaErrorMemoryAllocation: out of memory
Exiting program
Unrecoverable CUDA error while resetting the device id to 0 in ~cuda_scoped_device_id_guard:  cudaErrorMemoryAllocation: out of memory
Exiting program
 Unrecoverable CUDA error while resetting the device id to 0 in ~cuda_scoped_device_id_guard: cudaErrorMemoryAllocation: out of memory
Exiting program
 Unrecoverable CUDA error while resetting the device id to 0 in ~cuda_scoped_device_id_guard: cudaErrorMemoryAllocation: out of memory
Exiting program
Unrecoverable CUDA error while resetting the device id to 0 in ~cuda_scoped_device_id_guard: cudaErrorMemoryAllocation: out of memory
Exiting program
 Unrecoverable CUDA error while resetting the device id to 0 in ~cuda_scoped_device_id_guard: cudaErrorMemoryAllocation: out of memory
Exiting program
  Unrecoverable CUDA error while resetting the device id to 0 in ~cuda_scoped_device_id_guard: cudaErrorMemoryAllocation: out of memory
Exiting program
 Unrecoverable CUDA error while resetting the device id to 0 in ~cuda_scoped_device_id_guard: cudaErrorMemoryAllocation: out of memory
Exiting program
Unrecoverable CUDA error while resetting the device id to 0 in ~cuda_scoped_device_id_guard: cudaErrorMemoryAllocation: out of memory
Exiting program
  Unrecoverable CUDA error while resetting the device id to 0 in ~cuda_scoped_device_id_guard: cudaErrorMemoryAllocation: out of memory
Exiting program
Unrecoverable CUDA error while resetting the device id to 0 in ~cuda_scoped_device_id_guard: cudaErrorMemoryAllocation: out of memory
Exiting program
  Unrecoverable CUDA error while resetting the device id to 0 in ~cuda_scoped_device_id_guard: cudaErrorMemoryAllocation: out of memory
Exiting program
Unrecoverable CUDA error while resetting the device id to 0 in ~cuda_scoped_device_id_guard: cudaErrorMemoryAllocation: out of memory
Exiting program
 --------------------------------------------------------------------------
Primary job  terminated normally, but 1 process returned
a non-zero exit code. Per user-direction, the job has been aborted.
--------------------------------------------------------------------------
Unrecoverable CUDA error while resetting the device id to 0 in ~cuda_scoped_device_id_guard: cudaErrorMemoryAllocation: out of memory
Exiting program
Unrecoverable CUDA error while resetting the device id to 0 in ~cuda_scoped_device_id_guard: cudaErrorMemoryAllocation: out of memory
Exiting program
Unrecoverable CUDA error while resetting the device id to 0 in ~cuda_scoped_device_id_guard: cudaErrorMemoryAllocation: out of memory
Exiting program
Unrecoverable CUDA error while resetting the device id to 0 in ~cuda_scoped_device_id_guard: cudaErrorMemoryAllocation: out of memory
Exiting program
Unrecoverable CUDA error while resetting the device id to 0 in ~cuda_scoped_device_id_guard: cudaErrorMemoryAllocation: out of memory
Exiting program
Unrecoverable CUDA error while resetting the device id to 0 in ~cuda_scoped_device_id_guard: cudaErrorMemoryAllocation: out of memory
Exiting program
Unrecoverable CUDA error while resetting the device id to 0 in ~cuda_scoped_device_id_guard: cudaErrorMemoryAllocation: out of memory
Exiting program
            Unrecoverable CUDA error while resetting the device id to 0 in ~cuda_scoped_device_id_guard: cudaErrorMemoryAllocation: out of memory
Exiting program
Unrecoverable CUDA error while resetting the device id to 0 in ~cuda_scoped_device_id_guard: cudaErrorMemoryAllocation: out of memory
Exiting program
Unrecoverable CUDA error while resetting the device id to 0 in ~cuda_scoped_device_id_guard: cudaErrorMemoryAllocation: out of memory
Exiting program
Unrecoverable CUDA error while resetting the device id to 0 in ~cuda_scoped_device_id_guard: cudaErrorMemoryAllocation: out of memory
Exiting program
Unrecoverable CUDA error while resetting the device id to 0 in ~cuda_scoped_device_id_guard: cudaErrorMemoryAllocation: out of memory
Exiting program
--------------------------------------------------------------------------
mpirun detected that one or more processes exited with non-zero status, thus causing
the job to be terminated. The first process to do so was:

  Process name: [[12887,1],114]
  Exit code:    2
--------------------------------------------------------------------------
