/*---------------------------------------------------------------------------*\
| =========                 |                                                 |
| \\      /  F ield         | OpenFOAM: The Open Source CFD Toolbox           |
|  \\    /   O peration     | Version:  2306                                  |
|   \\  /    A nd           | Website:  www.openfoam.com                      |
|    \\/     M anipulation  |                                                 |
\*---------------------------------------------------------------------------*/
Build  : a6e826bd55-20230630 OPENFOAM=2306 version=v2306
Arch   : "LSB;label=32;scalar=64"
Exec   : icoFoam -parallel -case /tmp/lidDrivenCavity/workspace/32a702ea51eb969385d188b2925d5ef0/case
Date   : Dec 17 2023
Time   : 06:49:11
Host   : nla-gpu2.ianm.kit.edu
PID    : 192972
I/O    : uncollated
Case   : /tmp/lidDrivenCavity/workspace/32a702ea51eb969385d188b2925d5ef0/case
nProcs : 32
Hosts  :
(
    (nla-gpu2.ianm.kit.edu 32)
)
Pstream initialized with:
    floatTransfer      : false
    nProcsSimpleSum    : 0
    nonBlockingExchange: 0 (tuning: 0)
    exchange algorithm : -1
    commsType          : nonBlocking
    polling iterations : 0
trapFpe: Floating point exception trapping enabled (FOAM_SIGFPE).
fileModificationChecking : Monitoring run-time modified files using timeStampMaster (fileModificationSkew 5, maxFileModificationPolls 20)
allowSystemOperations : Allowing user-supplied system call operations

// * * * * * * * * * * * * * * * * * * * * * * * * * * * * * * * * * * * * * //
Create time

--> FOAM Warning : 
    From void* Foam::dlLibraryTable::openLibrary(const Foam::fileName&, bool)
    in file db/dynamicLibrary/dlLibraryTable/dlLibraryTable.C at line 188
    Could not load "libpetscFoam.so"
libpetscFoam.so: cannot open shared object file: No such file or directory
Create mesh for time = 0


PISO: Operating solver in PISO mode

Reading transportProperties

Reading field p

Reading field U

Reading/calculating face flux field phi


Starting time loop

Time = 0.000125

Courant Number mean: 8.02505e-18 max: 4.85723e-14
[INFO] MatrixAssemblyU: 575.293 [ms]
DILUPBiCGStab:  Solving for Ux, Initial residual = 1, Final residual = 0.0215184, No Iterations 5
DILUPBiCGStab:  Solving for Uy:  solution singularity
DILUPBiCGStab:  Solving for Uz:  solution singularity
[INFO] MomentumPredictor: 2087.45 [ms]
[INFO] MatrixAssemblyPI: 590.734 [ms]
[INFO] AdjustPhi: 27.198 [ms]
[INFO] ConstrainPressure: 0.014 [ms]
[INFO] MatrixAssemblyPII: 166.623 [ms]
GAMG:  Solving for p, Initial residual = 1, Final residual = 9.86077e-05, No Iterations 39
[INFO] SolveP: 13069.4 [ms]
time step continuity errors : sum local = 2.50758e-09, global = 1.23347e-22, cumulative = 1.23347e-22
[INFO] ContinuityError: 66.242 [ms]
[INFO] CorrectBoundary: 1.254 [ms]
[INFO] PISOStep: 14117 [ms]
[INFO] MatrixAssemblyPI: 557.428 [ms]
[INFO] AdjustPhi: 25.394 [ms]
[INFO] ConstrainPressure: 0.003 [ms]
[INFO] MatrixAssemblyPII: 166.461 [ms]
GAMG:  Solving for p, Initial residual = 0.822086, Final residual = 9.8383e-05, No Iterations 43
[INFO] SolveP: 13582.4 [ms]
time step continuity errors : sum local = 3.01688e-09, global = 3.4738e-22, cumulative = 4.70727e-22
[INFO] ContinuityError: 59.619 [ms]
[INFO] CorrectBoundary: 0.851 [ms]
[INFO] PISOStep: 14581.4 [ms]
[INFO] TimeStep: 31423.9 [ms]
ExecutionTime = 33.5 s  ClockTime = 34 s

Time = 0.00025

Courant Number mean: 0.010853 max: 0.437705
[INFO] MatrixAssemblyU: 516.659 [ms]
DILUPBiCGStab:  Solving for Ux, Initial residual = 0.108176, Final residual = 0.0135482, No Iterations 5
DILUPBiCGStab:  Solving for Uy, Initial residual = 0.484651, Final residual = 0.0533683, No Iterations 5
DILUPBiCGStab:  Solving for Uz, Initial residual = 0.988696, Final residual = 0.124952, No Iterations 5
[INFO] MomentumPredictor: 3925.25 [ms]
[INFO] MatrixAssemblyPI: 574.747 [ms]
[INFO] AdjustPhi: 25.961 [ms]
[INFO] ConstrainPressure: 0.003 [ms]
[INFO] MatrixAssemblyPII: 166.809 [ms]
GAMG:  Solving for p, Initial residual = 0.908334, Final residual = 9.96327e-05, No Iterations 35
[INFO] SolveP: 11052.3 [ms]
time step continuity errors : sum local = 7.17003e-09, global = -1.06674e-22, cumulative = 3.64053e-22
[INFO] ContinuityError: 64.811 [ms]
[INFO] CorrectBoundary: 1.114 [ms]
[INFO] PISOStep: 12092.1 [ms]
[INFO] MatrixAssemblyPI: 557.992 [ms]
[INFO] AdjustPhi: 25.72 [ms]
[INFO] ConstrainPressure: 0.003 [ms]
[INFO] MatrixAssemblyPII: 166.559 [ms]
GAMG:  Solving for p, Initial residual = 0.859173, Final residual = 8.98406e-05, No Iterations 33
[INFO] SolveP: 10429.6 [ms]
time step continuity errors : sum local = 6.57782e-09, global = 1.52364e-22, cumulative = 5.16418e-22
[INFO] ContinuityError: 59.065 [ms]
[INFO] CorrectBoundary: 1.642 [ms]
[INFO] PISOStep: 11427.2 [ms]
[INFO] TimeStep: 28022.4 [ms]
ExecutionTime = 61.37 s  ClockTime = 62 s

Time = 0.000375

Courant Number mean: 0.0169397 max: 0.511597
[INFO] MatrixAssemblyU: 509.96 [ms]
DILUPBiCGStab:  Solving for Ux, Initial residual = 0.053693, Final residual = 0.00548726, No Iterations 5
DILUPBiCGStab:  Solving for Uy, Initial residual = 0.262214, Final residual = 0.026762, No Iterations 5
DILUPBiCGStab:  Solving for Uz, Initial residual = 0.880962, Final residual = 0.0996002, No Iterations 5
[INFO] MomentumPredictor: 3931.11 [ms]
[INFO] MatrixAssemblyPI: 573.394 [ms]
[INFO] AdjustPhi: 27.123 [ms]
[INFO] ConstrainPressure: 0.003 [ms]
[INFO] MatrixAssemblyPII: 166.841 [ms]
GAMG:  Solving for p, Initial residual = 0.941645, Final residual = 9.87473e-05, No Iterations 33
[INFO] SolveP: 10416 [ms]
time step continuity errors : sum local = 8.87591e-09, global = 3.35066e-22, cumulative = 8.51484e-22
[INFO] ContinuityError: 59.562 [ms]
[INFO] CorrectBoundary: 0.945 [ms]
[INFO] PISOStep: 11431.4 [ms]
[INFO] MatrixAssemblyPI: 556.855 [ms]
[INFO] AdjustPhi: 26.521 [ms]
[INFO] ConstrainPressure: 0.004 [ms]
[INFO] MatrixAssemblyPII: 166.819 [ms]
GAMG:  Solving for p, Initial residual = 0.909137, Final residual = 8.90427e-05, No Iterations 30
[INFO] SolveP: 9495.29 [ms]
time step continuity errors : sum local = 7.95384e-09, global = 5.92856e-22, cumulative = 1.44434e-21
[INFO] ContinuityError: 58.911 [ms]
[INFO] CorrectBoundary: 0.925 [ms]
[INFO] PISOStep: 10493.7 [ms]
[INFO] TimeStep: 26427.8 [ms]
ExecutionTime = 87.64 s  ClockTime = 88 s

Time = 0.0005

Courant Number mean: 0.0205485 max: 0.477631
[INFO] MatrixAssemblyU: 508.166 [ms]
DILUPBiCGStab:  Solving for Ux, Initial residual = 0.0416983, Final residual = 0.00508643, No Iterations 5
DILUPBiCGStab:  Solving for Uy, Initial residual = 0.214444, Final residual = 0.0244183, No Iterations 5
DILUPBiCGStab:  Solving for Uz, Initial residual = 0.816423, Final residual = 0.0835648, No Iterations 5
[INFO] MomentumPredictor: 3936.39 [ms]
[INFO] MatrixAssemblyPI: 573.09 [ms]
[INFO] AdjustPhi: 25.655 [ms]
[INFO] ConstrainPressure: 0.004 [ms]
[INFO] MatrixAssemblyPII: 164.824 [ms]
GAMG:  Solving for p, Initial residual = 0.938461, Final residual = 9.23977e-05, No Iterations 27
[INFO] SolveP: 8554.51 [ms]
time step continuity errors : sum local = 1.01713e-08, global = 5.80668e-22, cumulative = 2.02501e-21
[INFO] ContinuityError: 59.049 [ms]
[INFO] CorrectBoundary: 1.044 [ms]
[INFO] PISOStep: 9567.6 [ms]
[INFO] MatrixAssemblyPI: 558.797 [ms]
[INFO] AdjustPhi: 28.084 [ms]
[INFO] ConstrainPressure: 0.003 [ms]
[INFO] MatrixAssemblyPII: 164.603 [ms]
GAMG:  Solving for p, Initial residual = 0.880771, Final residual = 9.29315e-05, No Iterations 27
[INFO] SolveP: 8562.33 [ms]
time step continuity errors : sum local = 1.04214e-08, global = 6.79064e-22, cumulative = 2.70407e-21
[INFO] ContinuityError: 60.323 [ms]
[INFO] CorrectBoundary: 1.361 [ms]
[INFO] PISOStep: 9564.29 [ms]
[INFO] TimeStep: 23637.6 [ms]
ExecutionTime = 111.15 s  ClockTime = 112 s

Time = 0.000625

Courant Number mean: 0.0236215 max: 0.556304
[INFO] MatrixAssemblyU: 511.744 [ms]
DILUPBiCGStab:  Solving for Ux, Initial residual = 0.037674, Final residual = 0.00460994, No Iterations 5
DILUPBiCGStab:  Solving for Uy, Initial residual = 0.185998, Final residual = 0.020359, No Iterations 5
DILUPBiCGStab:  Solving for Uz, Initial residual = 0.821064, Final residual = 0.0859057, No Iterations 5
[INFO] MomentumPredictor: 3928.19 [ms]
[INFO] MatrixAssemblyPI: 574.482 [ms]
[INFO] AdjustPhi: 26.302 [ms]
[INFO] ConstrainPressure: 0.003 [ms]
[INFO] MatrixAssemblyPII: 166.296 [ms]
GAMG:  Solving for p, Initial residual = 0.954544, Final residual = 9.40847e-05, No Iterations 48
[INFO] SolveP: 15108 [ms]
time step continuity errors : sum local = 1.18635e-08, global = 2.07028e-22, cumulative = 2.9111e-21
[INFO] ContinuityError: 59.279 [ms]
[INFO] CorrectBoundary: 0.954 [ms]
[INFO] PISOStep: 16123.7 [ms]
[INFO] MatrixAssemblyPI: 557.904 [ms]
[INFO] AdjustPhi: 25.941 [ms]
[INFO] ConstrainPressure: 0.003 [ms]
[INFO] MatrixAssemblyPII: 164.475 [ms]
GAMG:  Solving for p, Initial residual = 0.915455, Final residual = 5.32854e-05, No Iterations 29
[INFO] SolveP: 9184.59 [ms]
time step continuity errors : sum local = 6.67221e-09, global = -5.32433e-23, cumulative = 2.85786e-21
[INFO] ContinuityError: 60.331 [ms]
[INFO] CorrectBoundary: 1.114 [ms]
[INFO] PISOStep: 10183.1 [ms]
[INFO] TimeStep: 30808.1 [ms]
ExecutionTime = 141.79 s  ClockTime = 143 s

Time = 0.00075

Courant Number mean: 0.0259538 max: 0.483522
[INFO] MatrixAssemblyU: 511.682 [ms]
DILUPBiCGStab:  Solving for Ux, Initial residual = 0.035434, Final residual = 0.00439558, No Iterations 5
DILUPBiCGStab:  Solving for Uy, Initial residual = 0.172412, Final residual = 0.0175101, No Iterations 5
DILUPBiCGStab:  Solving for Uz, Initial residual = 0.775281, Final residual = 0.0862245, No Iterations 5
[INFO] MomentumPredictor: 3930.88 [ms]
[INFO] MatrixAssemblyPI: 573.168 [ms]
[INFO] AdjustPhi: 27.214 [ms]
[INFO] ConstrainPressure: 0.003 [ms]
[INFO] MatrixAssemblyPII: 163.127 [ms]
GAMG:  Solving for p, Initial residual = 0.951629, Final residual = 9.60483e-05, No Iterations 29
[INFO] SolveP: 9188.74 [ms]
time step continuity errors : sum local = 1.39584e-08, global = 1.9356e-22, cumulative = 3.05142e-21
[INFO] ContinuityError: 62.105 [ms]
[INFO] CorrectBoundary: 1.057 [ms]
[INFO] PISOStep: 10207.5 [ms]
[INFO] MatrixAssemblyPI: 558.418 [ms]
[INFO] AdjustPhi: 25.621 [ms]
[INFO] ConstrainPressure: 0.004 [ms]
[INFO] MatrixAssemblyPII: 166.887 [ms]
GAMG:  Solving for p, Initial residual = 0.891573, Final residual = 8.28961e-05, No Iterations 41
[INFO] SolveP: 12936 [ms]
time step continuity errors : sum local = 1.22405e-08, global = 4.73974e-22, cumulative = 3.52539e-21
[INFO] ContinuityError: 59.596 [ms]
[INFO] CorrectBoundary: 0.749 [ms]
[INFO] PISOStep: 13935.4 [ms]
[INFO] TimeStep: 28647.4 [ms]
ExecutionTime = 170.28 s  ClockTime = 171 s

Time = 0.000875

Courant Number mean: 0.0281518 max: 0.612851
[INFO] MatrixAssemblyU: 508.668 [ms]
DILUPBiCGStab:  Solving for Ux, Initial residual = 0.0351393, Final residual = 0.00418356, No Iterations 5
DILUPBiCGStab:  Solving for Uy, Initial residual = 0.176884, Final residual = 0.0165175, No Iterations 5
DILUPBiCGStab:  Solving for Uz, Initial residual = 0.803635, Final residual = 0.0965716, No Iterations 5
[INFO] MomentumPredictor: 3936.03 [ms]
[INFO] MatrixAssemblyPI: 575.033 [ms]
[INFO] AdjustPhi: 25.169 [ms]
[INFO] ConstrainPressure: 0.003 [ms]
[INFO] MatrixAssemblyPII: 166.713 [ms]
GAMG:  Solving for p, Initial residual = 0.962498, Final residual = 7.00292e-05, No Iterations 36
[INFO] SolveP: 11351.9 [ms]
time step continuity errors : sum local = 1.15391e-08, global = 5.20297e-22, cumulative = 4.04569e-21
[INFO] ContinuityError: 59.217 [ms]
[INFO] CorrectBoundary: 1.215 [ms]
[INFO] PISOStep: 12367.3 [ms]
[INFO] MatrixAssemblyPI: 557.988 [ms]
[INFO] AdjustPhi: 25.953 [ms]
[INFO] ConstrainPressure: 0.004 [ms]
[INFO] MatrixAssemblyPII: 166.153 [ms]
GAMG:  Solving for p, Initial residual = 0.917926, Final residual = 8.21417e-05, No Iterations 31
[INFO] SolveP: 9815.15 [ms]
time step continuity errors : sum local = 1.34676e-08, global = 8.8423e-22, cumulative = 4.92992e-21
[INFO] ContinuityError: 59.243 [ms]
[INFO] CorrectBoundary: 0.887 [ms]
[INFO] PISOStep: 10813.8 [ms]
[INFO] TimeStep: 27687.2 [ms]
ExecutionTime = 197.83 s  ClockTime = 199 s

Time = 0.001

Courant Number mean: 0.0298956 max: 0.492224
[INFO] MatrixAssemblyU: 508.987 [ms]
DILUPBiCGStab:  Solving for Ux, Initial residual = 0.0362307, Final residual = 0.004038, No Iterations 5
DILUPBiCGStab:  Solving for Uy, Initial residual = 0.170895, Final residual = 0.0144802, No Iterations 5
DILUPBiCGStab:  Solving for Uz, Initial residual = 0.772744, Final residual = 0.087305, No Iterations 5
[INFO] MomentumPredictor: 3932.38 [ms]
[INFO] MatrixAssemblyPI: 572.499 [ms]
[INFO] AdjustPhi: 28.203 [ms]
[INFO] ConstrainPressure: 0.003 [ms]
[INFO] MatrixAssemblyPII: 166.63 [ms]
GAMG:  Solving for p, Initial residual = 0.96042, Final residual = 9.84326e-05, No Iterations 33
[INFO] SolveP: 10429.2 [ms]
time step continuity errors : sum local = 1.86578e-08, global = -1.26145e-22, cumulative = 4.80377e-21
[INFO] ContinuityError: 59.852 [ms]
[INFO] CorrectBoundary: 1.023 [ms]
[INFO] PISOStep: 11444.5 [ms]
[INFO] MatrixAssemblyPI: 557.259 [ms]
[INFO] AdjustPhi: 26.678 [ms]
[INFO] ConstrainPressure: 0.004 [ms]
[INFO] MatrixAssemblyPII: 164.849 [ms]
GAMG:  Solving for p, Initial residual = 0.898544, Final residual = 8.5118e-05, No Iterations 47
[INFO] SolveP: 14786.6 [ms]
time step continuity errors : sum local = 1.63651e-08, global = -8.67247e-23, cumulative = 4.71705e-21
[INFO] ContinuityError: 60.021 [ms]
[INFO] CorrectBoundary: 1.221 [ms]
[INFO] PISOStep: 15784.8 [ms]
[INFO] TimeStep: 31732.7 [ms]
ExecutionTime = 229.39 s  ClockTime = 231 s

Time = 0.001125

Courant Number mean: 0.0317025 max: 0.696923
[INFO] MatrixAssemblyU: 509.279 [ms]
DILUPBiCGStab:  Solving for Ux, Initial residual = 0.0375722, Final residual = 0.0038372, No Iterations 5
DILUPBiCGStab:  Solving for Uy, Initial residual = 0.187851, Final residual = 0.0148617, No Iterations 5
DILUPBiCGStab:  Solving for Uz, Initial residual = 0.790576, Final residual = 0.0912402, No Iterations 5
[INFO] MomentumPredictor: 3938.47 [ms]
[INFO] MatrixAssemblyPI: 574.496 [ms]
[INFO] AdjustPhi: 27.015 [ms]
[INFO] ConstrainPressure: 0.003 [ms]
[INFO] MatrixAssemblyPII: 166.093 [ms]
GAMG:  Solving for p, Initial residual = 0.968274, Final residual = 8.83342e-05, No Iterations 37
[INFO] SolveP: 11659.6 [ms]
time step continuity errors : sum local = 1.91925e-08, global = 3.31622e-22, cumulative = 5.04867e-21
[INFO] ContinuityError: 60.046 [ms]
[INFO] CorrectBoundary: 1.112 [ms]
[INFO] PISOStep: 12676.2 [ms]
[INFO] MatrixAssemblyPI: 558.113 [ms]
[INFO] AdjustPhi: 25.846 [ms]
[INFO] ConstrainPressure: 0.003 [ms]
[INFO] MatrixAssemblyPII: 166.216 [ms]
GAMG:  Solving for p, Initial residual = 0.919062, Final residual = 9.04884e-05, No Iterations 39
[INFO] SolveP: 12298 [ms]
time step continuity errors : sum local = 1.9632e-08, global = 6.48665e-22, cumulative = 5.69733e-21
[INFO] ContinuityError: 58.914 [ms]
[INFO] CorrectBoundary: 1.145 [ms]
[INFO] PISOStep: 13296.2 [ms]
[INFO] TimeStep: 30481.7 [ms]
ExecutionTime = 259.7 s  ClockTime = 261 s

Time = 0.00125

Courant Number mean: 0.033113 max: 0.506817
[INFO] MatrixAssemblyU: 510.878 [ms]
DILUPBiCGStab:  Solving for Ux, Initial residual = 0.0409355, Final residual = 0.00389661, No Iterations 5
DILUPBiCGStab:  Solving for Uy, Initial residual = 0.187206, Final residual = 0.0133315, No Iterations 5
DILUPBiCGStab:  Solving for Uz, Initial residual = 0.779029, Final residual = 0.0868027, No Iterations 5
[INFO] MomentumPredictor: 3933.89 [ms]
[INFO] MatrixAssemblyPI: 572.178 [ms]
[INFO] AdjustPhi: 25.671 [ms]
[INFO] ConstrainPressure: 0.004 [ms]
[INFO] MatrixAssemblyPII: 165.497 [ms]
GAMG:  Solving for p, Initial residual = 0.967665, Final residual = 9.89318e-05, No Iterations 32
[INFO] SolveP: 10109.3 [ms]
time step continuity errors : sum local = 2.50931e-08, global = 1.14637e-21, cumulative = 6.8437e-21
[INFO] ContinuityError: 59.801 [ms]
[INFO] CorrectBoundary: 1.345 [ms]
[INFO] PISOStep: 11123.9 [ms]
[INFO] MatrixAssemblyPI: 557.374 [ms]
[INFO] AdjustPhi: 27.038 [ms]
[INFO] ConstrainPressure: 0.003 [ms]
[INFO] MatrixAssemblyPII: 165.571 [ms]
GAMG:  Solving for p, Initial residual = 0.904255, Final residual = 9.80277e-05, No Iterations 35
[INFO] SolveP: 11057.9 [ms]
time step continuity errors : sum local = 2.52317e-08, global = 4.18734e-22, cumulative = 7.26244e-21
[INFO] ContinuityError: 59.926 [ms]
[INFO] CorrectBoundary: 1.308 [ms]
[INFO] PISOStep: 12057.2 [ms]
[INFO] TimeStep: 27687.2 [ms]
ExecutionTime = 287.24 s  ClockTime = 289 s

Time = 0.001375

Courant Number mean: 0.0347179 max: 0.827293
[INFO] MatrixAssemblyU: 511.342 [ms]
DILUPBiCGStab:  Solving for Ux, Initial residual = 0.0438743, Final residual = 0.0037694, No Iterations 5
DILUPBiCGStab:  Solving for Uy, Initial residual = 0.211502, Final residual = 0.0144317, No Iterations 5
DILUPBiCGStab:  Solving for Uz, Initial residual = 0.789959, Final residual = 0.0860847, No Iterations 5
[INFO] MomentumPredictor: 3929.7 [ms]
[INFO] MatrixAssemblyPI: 575.061 [ms]
[INFO] AdjustPhi: 25.546 [ms]
[INFO] ConstrainPressure: 0.003 [ms]
[INFO] MatrixAssemblyPII: 165.005 [ms]
GAMG:  Solving for p, Initial residual = 0.973222, Final residual = 6.01931e-05, No Iterations 54
[INFO] SolveP: 16940.4 [ms]
time step continuity errors : sum local = 1.77128e-08, global = 4.98118e-23, cumulative = 7.31225e-21
[INFO] ContinuityError: 64.351 [ms]
[INFO] CorrectBoundary: 1.113 [ms]
[INFO] PISOStep: 17980.8 [ms]
[INFO] MatrixAssemblyPI: 558.369 [ms]
[INFO] AdjustPhi: 24.778 [ms]
[INFO] ConstrainPressure: 0.003 [ms]
[INFO] MatrixAssemblyPII: 165.429 [ms]
GAMG:  Solving for p, Initial residual = 0.919951, Final residual = 5.70048e-05, No Iterations 44
[INFO] SolveP: 13855.5 [ms]
time step continuity errors : sum local = 1.67919e-08, global = -8.26147e-23, cumulative = 7.22963e-21
[INFO] ContinuityError: 60.81 [ms]
[INFO] CorrectBoundary: 1.141 [ms]
[INFO] PISOStep: 14853.6 [ms]
[INFO] TimeStep: 37337.5 [ms]
ExecutionTime = 324.37 s  ClockTime = 326 s

Time = 0.0015

Courant Number mean: 0.0359146 max: 0.601198
[INFO] MatrixAssemblyU: 509.904 [ms]
DILUPBiCGStab:  Solving for Ux, Initial residual = 0.0492768, Final residual = 0.00395035, No Iterations 5
DILUPBiCGStab:  Solving for Uy, Initial residual = 0.215902, Final residual = 0.0132998, No Iterations 5
DILUPBiCGStab:  Solving for Uz, Initial residual = 0.76616, Final residual = 0.066172, No Iterations 5
[INFO] MomentumPredictor: 3931.98 [ms]
[INFO] MatrixAssemblyPI: 574.357 [ms]
[INFO] AdjustPhi: 26.08 [ms]
[INFO] ConstrainPressure: 0.003 [ms]
[INFO] MatrixAssemblyPII: 163.501 [ms]
GAMG:  Solving for p, Initial residual = 0.973425, Final residual = 9.28685e-05, No Iterations 40
[INFO] SolveP: 12609.3 [ms]
time step continuity errors : sum local = 3.19662e-08, global = 6.35068e-22, cumulative = 7.8647e-21
[INFO] ContinuityError: 58.994 [ms]
[INFO] CorrectBoundary: 1.205 [ms]
[INFO] PISOStep: 13625.3 [ms]
[INFO] MatrixAssemblyPI: 556.676 [ms]
[INFO] AdjustPhi: 29.306 [ms]
[INFO] ConstrainPressure: 0.006 [ms]
[INFO] MatrixAssemblyPII: 164.485 [ms]
GAMG:  Solving for p, Initial residual = 0.908958, Final residual = 9.65744e-05, No Iterations 37
[INFO] SolveP: 11679.1 [ms]
time step continuity errors : sum local = 3.37213e-08, global = 1.80418e-21, cumulative = 9.66889e-21
[INFO] ContinuityError: 59.926 [ms]
[INFO] CorrectBoundary: 1.077 [ms]
[INFO] PISOStep: 12678.8 [ms]
[INFO] TimeStep: 30807.6 [ms]
ExecutionTime = 355.02 s  ClockTime = 357 s

Time = 0.001625

Courant Number mean: 0.0374104 max: 1.15283
[INFO] MatrixAssemblyU: 510.85 [ms]
DILUPBiCGStab:  Solving for Ux, Initial residual = 0.054095, Final residual = 0.00394824, No Iterations 5
DILUPBiCGStab:  Solving for Uy, Initial residual = 0.244864, Final residual = 0.0147179, No Iterations 5
DILUPBiCGStab:  Solving for Uz, Initial residual = 0.787498, Final residual = 0.0799028, No Iterations 5
[INFO] MomentumPredictor: 3933.86 [ms]
[INFO] MatrixAssemblyPI: 575.027 [ms]
[INFO] AdjustPhi: 25.566 [ms]
[INFO] ConstrainPressure: 0.003 [ms]
[INFO] MatrixAssemblyPII: 166.369 [ms]
GAMG:  Solving for p, Initial residual = 0.977014, Final residual = 8.58181e-05, No Iterations 50
[INFO] SolveP: 15692.5 [ms]
time step continuity errors : sum local = 3.46887e-08, global = -2.66662e-22, cumulative = 9.40222e-21
[INFO] ContinuityError: 59.887 [ms]
[INFO] CorrectBoundary: 1.36 [ms]
[INFO] PISOStep: 16707.3 [ms]
[INFO] MatrixAssemblyPI: 558.078 [ms]
[INFO] AdjustPhi: 26.527 [ms]
[INFO] ConstrainPressure: 0.003 [ms]
[INFO] MatrixAssemblyPII: 166.3 [ms]
GAMG:  Solving for p, Initial residual = 0.920725, Final residual = 4.44049e-05, No Iterations 41
[INFO] SolveP: 12917.2 [ms]
time step continuity errors : sum local = 1.80132e-08, global = 8.48842e-22, cumulative = 1.02511e-20
[INFO] ContinuityError: 59.445 [ms]
[INFO] CorrectBoundary: 0.863 [ms]
[INFO] PISOStep: 13916.8 [ms]
[INFO] TimeStep: 35131.2 [ms]
ExecutionTime = 389.96 s  ClockTime = 392 s

Time = 0.00175

Courant Number mean: 0.0384767 max: 1.02783
[INFO] MatrixAssemblyU: 508.138 [ms]
DILUPBiCGStab:  Solving for Ux, Initial residual = 0.0620412, Final residual = 0.00421852, No Iterations 5
DILUPBiCGStab:  Solving for Uy, Initial residual = 0.255485, Final residual = 0.0141376, No Iterations 5
DILUPBiCGStab:  Solving for Uz, Initial residual = 0.77635, Final residual = 0.066555, No Iterations 5
[INFO] MomentumPredictor: 3930.85 [ms]
[INFO] MatrixAssemblyPI: 574.717 [ms]
[INFO] AdjustPhi: 25.303 [ms]
[INFO] ConstrainPressure: 0.003 [ms]
[INFO] MatrixAssemblyPII: 166.641 [ms]
GAMG:  Solving for p, Initial residual = 0.977664, Final residual = 8.41512e-05, No Iterations 56
[INFO] SolveP: 17560.3 [ms]
time step continuity errors : sum local = 4.00405e-08, global = 7.08584e-22, cumulative = 1.09597e-20
[INFO] ContinuityError: 59.447 [ms]
[INFO] CorrectBoundary: 1.388 [ms]
[INFO] PISOStep: 18574.6 [ms]
[INFO] MatrixAssemblyPI: 558.381 [ms]
[INFO] AdjustPhi: 25.925 [ms]
[INFO] ConstrainPressure: 0.005 [ms]
[INFO] MatrixAssemblyPII: 163.705 [ms]
GAMG:  Solving for p, Initial residual = 0.913068, Final residual = 9.57732e-05, No Iterations 37
[INFO] SolveP: 11683.1 [ms]
time step continuity errors : sum local = 4.6223e-08, global = 8.41915e-22, cumulative = 1.18016e-20
[INFO] ContinuityError: 60.578 [ms]
[INFO] CorrectBoundary: 0.901 [ms]
[INFO] PISOStep: 12685.5 [ms]
[INFO] TimeStep: 35760.6 [ms]
ExecutionTime = 425.53 s  ClockTime = 428 s

Time = 0.001875

Courant Number mean: 0.0399428 max: 1.69117
[INFO] MatrixAssemblyU: 509.13 [ms]
DILUPBiCGStab:  Solving for Ux, Initial residual = 0.0692217, Final residual = 0.00437174, No Iterations 5
DILUPBiCGStab:  Solving for Uy, Initial residual = 0.28796, Final residual = 0.0155806, No Iterations 5
DILUPBiCGStab:  Solving for Uz, Initial residual = 0.786876, Final residual = 0.0728083, No Iterations 5
[INFO] MomentumPredictor: 3931.62 [ms]
[INFO] MatrixAssemblyPI: 574.405 [ms]
[INFO] AdjustPhi: 25.993 [ms]
[INFO] ConstrainPressure: 0.003 [ms]
[INFO] MatrixAssemblyPII: 166.225 [ms]
GAMG:  Solving for p, Initial residual = 0.979776, Final residual = 9.74202e-05, No Iterations 43
[INFO] SolveP: 13528.9 [ms]
time step continuity errors : sum local = 5.47216e-08, global = 1.47714e-21, cumulative = 1.32787e-20
[INFO] ContinuityError: 59.346 [ms]
[INFO] CorrectBoundary: 1.377 [ms]
[INFO] PISOStep: 14543.4 [ms]
[INFO] MatrixAssemblyPI: 557.914 [ms]
[INFO] AdjustPhi: 26.724 [ms]
[INFO] ConstrainPressure: 0.003 [ms]
[INFO] MatrixAssemblyPII: 166.428 [ms]
GAMG:  Solving for p, Initial residual = 0.921137, Final residual = 6.56721e-05, No Iterations 50
[INFO] SolveP: 15720.5 [ms]
time step continuity errors : sum local = 3.70172e-08, global = 9.48156e-22, cumulative = 1.42269e-20
[INFO] ContinuityError: 66.733 [ms]
[INFO] CorrectBoundary: 0.829 [ms]
[INFO] PISOStep: 16737.7 [ms]
[INFO] TimeStep: 35783.2 [ms]
ExecutionTime = 461.11 s  ClockTime = 464 s

Time = 0.002

Courant Number mean: 0.0409415 max: 1.72856
[INFO] MatrixAssemblyU: 509.588 [ms]
DILUPBiCGStab:  Solving for Ux, Initial residual = 0.0806316, Final residual = 0.00477814, No Iterations 5
DILUPBiCGStab:  Solving for Uy, Initial residual = 0.304993, Final residual = 0.0155753, No Iterations 5
DILUPBiCGStab:  Solving for Uz, Initial residual = 0.783736, Final residual = 0.0672517, No Iterations 5
[INFO] MomentumPredictor: 3935.48 [ms]
[INFO] MatrixAssemblyPI: 574.227 [ms]
[INFO] AdjustPhi: 26.071 [ms]
[INFO] ConstrainPressure: 0.003 [ms]
[INFO] MatrixAssemblyPII: 165.383 [ms]
GAMG:  Solving for p, Initial residual = 0.980903, Final residual = 8.20046e-05, No Iterations 44
[INFO] SolveP: 13823.4 [ms]
time step continuity errors : sum local = 5.45313e-08, global = -9.53636e-22, cumulative = 1.32732e-20
[INFO] ContinuityError: 59.652 [ms]
[INFO] CorrectBoundary: 1.876 [ms]
[INFO] PISOStep: 14838.7 [ms]
[INFO] MatrixAssemblyPI: 558.223 [ms]
[INFO] AdjustPhi: 25.358 [ms]
[INFO] ConstrainPressure: 0.003 [ms]
[INFO] MatrixAssemblyPII: 165.544 [ms]
GAMG:  Solving for p, Initial residual = 0.916176, Final residual = 9.32728e-05, No Iterations 38
[INFO] SolveP: 12000.7 [ms]
time step continuity errors : sum local = 6.26584e-08, global = 1.59873e-21, cumulative = 1.4872e-20
[INFO] ContinuityError: 58.638 [ms]
[INFO] CorrectBoundary: 0.885 [ms]
[INFO] PISOStep: 12999 [ms]
[INFO] TimeStep: 32344.2 [ms]
ExecutionTime = 493.28 s  ClockTime = 496 s

Time = 0.002125

Courant Number mean: 0.0424517 max: 2.57612
[INFO] MatrixAssemblyU: 511.221 [ms]
DILUPBiCGStab:  Solving for Ux, Initial residual = 0.0910517, Final residual = 0.00515102, No Iterations 5
DILUPBiCGStab:  Solving for Uy, Initial residual = 0.341458, Final residual = 0.0172984, No Iterations 5
DILUPBiCGStab:  Solving for Uz, Initial residual = 0.787621, Final residual = 0.0685716, No Iterations 5
[INFO] MomentumPredictor: 3931.28 [ms]
[INFO] MatrixAssemblyPI: 574.48 [ms]
[INFO] AdjustPhi: 25.911 [ms]
[INFO] ConstrainPressure: 0.003 [ms]
[INFO] MatrixAssemblyPII: 166.91 [ms]
GAMG:  Solving for p, Initial residual = 0.981971, Final residual = 7.06905e-05, No Iterations 40
[INFO] SolveP: 12601.5 [ms]
time step continuity errors : sum local = 5.59529e-08, global = 1.32111e-21, cumulative = 1.61931e-20
[INFO] ContinuityError: 59.517 [ms]
[INFO] CorrectBoundary: 1.408 [ms]
[INFO] PISOStep: 13616.2 [ms]
[INFO] MatrixAssemblyPI: 558.218 [ms]
[INFO] AdjustPhi: 25.571 [ms]
[INFO] ConstrainPressure: 0.003 [ms]
[INFO] MatrixAssemblyPII: 166.034 [ms]
GAMG:  Solving for p, Initial residual = 0.921227, Final residual = 9.66945e-05, No Iterations 33
[INFO] SolveP: 10432 [ms]
time step continuity errors : sum local = 7.68592e-08, global = 7.27919e-23, cumulative = 1.62659e-20
[INFO] ContinuityError: 58.854 [ms]
[INFO] CorrectBoundary: 0.862 [ms]
[INFO] PISOStep: 11430.5 [ms]
[INFO] TimeStep: 29550.6 [ms]
ExecutionTime = 522.67 s  ClockTime = 525 s

Time = 0.00225

Courant Number mean: 0.0434617 max: 2.87693
[INFO] MatrixAssemblyU: 512.431 [ms]
DILUPBiCGStab:  Solving for Ux, Initial residual = 0.107387, Final residual = 0.00573246, No Iterations 5
DILUPBiCGStab:  Solving for Uy, Initial residual = 0.364025, Final residual = 0.0175294, No Iterations 5
DILUPBiCGStab:  Solving for Uz, Initial residual = 0.784311, Final residual = 0.0636608, No Iterations 5
[INFO] MomentumPredictor: 3930.99 [ms]
[INFO] MatrixAssemblyPI: 573.243 [ms]
[INFO] AdjustPhi: 27.44 [ms]
[INFO] ConstrainPressure: 0.005 [ms]
[INFO] MatrixAssemblyPII: 164.602 [ms]
GAMG:  Solving for p, Initial residual = 0.983164, Final residual = 7.82474e-05, No Iterations 38
[INFO] SolveP: 11968.1 [ms]
time step continuity errors : sum local = 7.39465e-08, global = 8.89529e-22, cumulative = 1.71554e-20
[INFO] ContinuityError: 59.648 [ms]
[INFO] CorrectBoundary: 1.274 [ms]
[INFO] PISOStep: 12983.3 [ms]
[INFO] MatrixAssemblyPI: 558.605 [ms]
[INFO] AdjustPhi: 25.39 [ms]
[INFO] ConstrainPressure: 0.004 [ms]
[INFO] MatrixAssemblyPII: 163.99 [ms]
GAMG:  Solving for p, Initial residual = 0.918266, Final residual = 9.7251e-05, No Iterations 42
[INFO] SolveP: 13222.7 [ms]
time step continuity errors : sum local = 9.26177e-08, global = 9.21893e-22, cumulative = 1.80773e-20
[INFO] ContinuityError: 59.391 [ms]
[INFO] CorrectBoundary: 1.411 [ms]
[INFO] PISOStep: 14220.9 [ms]
[INFO] TimeStep: 31709.5 [ms]
ExecutionTime = 554.21 s  ClockTime = 557 s

Time = 0.002375

Courant Number mean: 0.0450983 max: 4.00638
[INFO] MatrixAssemblyU: 510.536 [ms]
DILUPBiCGStab:  Solving for Ux, Initial residual = 0.121518, Final residual = 0.0062572, No Iterations 5
DILUPBiCGStab:  Solving for Uy, Initial residual = 0.401227, Final residual = 0.0191361, No Iterations 5
DILUPBiCGStab:  Solving for Uz, Initial residual = 0.781104, Final residual = 0.058469, No Iterations 5
[INFO] MomentumPredictor: 3936.26 [ms]
[INFO] MatrixAssemblyPI: 574.937 [ms]
[INFO] AdjustPhi: 25.923 [ms]
[INFO] ConstrainPressure: 0.003 [ms]
[INFO] MatrixAssemblyPII: 166.478 [ms]
GAMG:  Solving for p, Initial residual = 0.983586, Final residual = 8.0273e-05, No Iterations 58
[INFO] SolveP: 18202.6 [ms]
time step continuity errors : sum local = 9.08414e-08, global = 1.18949e-21, cumulative = 1.92668e-20
[INFO] ContinuityError: 59.559 [ms]
[INFO] CorrectBoundary: 1.156 [ms]
[INFO] PISOStep: 19219.6 [ms]
[INFO] MatrixAssemblyPI: 556.792 [ms]
[INFO] AdjustPhi: 27.099 [ms]
[INFO] ConstrainPressure: 0.003 [ms]
[INFO] MatrixAssemblyPII: 165.409 [ms]
GAMG:  Solving for p, Initial residual = 0.921343, Final residual = 8.03248e-05, No Iterations 42
[INFO] SolveP: 13232.5 [ms]
time step continuity errors : sum local = 9.11678e-08, global = 3.57756e-22, cumulative = 1.96245e-20
[INFO] ContinuityError: 58.877 [ms]
[INFO] CorrectBoundary: 1.006 [ms]
[INFO] PISOStep: 14230.6 [ms]
[INFO] TimeStep: 37958.7 [ms]
ExecutionTime = 591.96 s  ClockTime = 595 s

Time = 0.0025

Courant Number mean: 0.0462162 max: 4.73853
[INFO] MatrixAssemblyU: 510.973 [ms]
DILUPBiCGStab:  Solving for Ux, Initial residual = 0.144349, Final residual = 0.00708975, No Iterations 5
DILUPBiCGStab:  Solving for Uy, Initial residual = 0.427577, Final residual = 0.0195647, No Iterations 5
DILUPBiCGStab:  Solving for Uz, Initial residual = 0.780499, Final residual = 0.0577693, No Iterations 5
[INFO] MomentumPredictor: 3933.06 [ms]
[INFO] MatrixAssemblyPI: 572.552 [ms]
[INFO] AdjustPhi: 27.983 [ms]
[INFO] ConstrainPressure: 0.003 [ms]
[INFO] MatrixAssemblyPII: 166.566 [ms]
GAMG:  Solving for p, Initial residual = 0.984454, Final residual = 7.30678e-05, No Iterations 31
[INFO] SolveP: 9810.69 [ms]
time step continuity errors : sum local = 9.9032e-08, global = 6.65674e-22, cumulative = 2.02902e-20
[INFO] ContinuityError: 59.032 [ms]
[INFO] CorrectBoundary: 1.09 [ms]
[INFO] PISOStep: 10826.2 [ms]
[INFO] MatrixAssemblyPI: 556.733 [ms]
[INFO] AdjustPhi: 27.956 [ms]
[INFO] ConstrainPressure: 0.003 [ms]
[INFO] MatrixAssemblyPII: 163.558 [ms]
GAMG:  Solving for p, Initial residual = 0.919523, Final residual = 8.78272e-05, No Iterations 35
[INFO] SolveP: 11058.8 [ms]
time step continuity errors : sum local = 1.20132e-07, global = 1.21854e-21, cumulative = 2.15087e-20
[INFO] ContinuityError: 60.788 [ms]
[INFO] CorrectBoundary: 1.145 [ms]
[INFO] PISOStep: 12058.8 [ms]
[INFO] TimeStep: 27390.9 [ms]
ExecutionTime = 619.2 s  ClockTime = 623 s

End

Finalising parallel run
