/*---------------------------------------------------------------------------*\
| =========                 |                                                 |
| \\      /  F ield         | OpenFOAM: The Open Source CFD Toolbox           |
|  \\    /   O peration     | Version:  2306                                  |
|   \\  /    A nd           | Website:  www.openfoam.com                      |
|    \\/     M anipulation  |                                                 |
\*---------------------------------------------------------------------------*/
Build  : a6e826bd55-20230630 OPENFOAM=2306 version=v2306
Arch   : "LSB;label=32;scalar=64"
Exec   : simpleFoam -parallel -case /home/greole/data/code/exasim_project/micro_benchmarks/WindsorBody/workspace/663e5e153d26bedb7a1d53a129717752/case
Date   : Aug 11 2023
Time   : 23:40:37
Host   : nla-gpu2.ianm.kit.edu
PID    : 2485681
I/O    : uncollated
Case   : /home/greole/data/code/exasim_project/micro_benchmarks/WindsorBody/workspace/663e5e153d26bedb7a1d53a129717752/case
nProcs : 32
Hosts  :
(
    (nla-gpu2.ianm.kit.edu 32)
)
Pstream initialized with:
    floatTransfer      : false
    nProcsSimpleSum    : 0
    nonBlockingExchange: 0 (tuning: 0)
    exchange algorithm : -1
    commsType          : nonBlocking
    polling iterations : 0
trapFpe: Floating point exception trapping enabled (FOAM_SIGFPE).
fileModificationChecking : Monitoring run-time modified files using timeStampMaster (fileModificationSkew 5, maxFileModificationPolls 20)
allowSystemOperations : Allowing user-supplied system call operations

// * * * * * * * * * * * * * * * * * * * * * * * * * * * * * * * * * * * * * //
Create time

--> FOAM Warning : 
    From void* Foam::dlLibraryTable::openLibrary(const Foam::fileName&, bool)
    in file db/dynamicLibrary/dlLibraryTable/dlLibraryTable.C at line 188
    Could not load "libpetscFoam.so"
libpetscFoam.so: cannot open shared object file: No such file or directory
Create mesh for time = 0


SIMPLE: convergence criteria
    field p	 tolerance 1e-08
    field U	 tolerance 1e-08
    field k	 tolerance 1e-08
    field omega	 tolerance 1e-08
    field nuTilda	 tolerance 1e-08

Reading field p

Reading field U

Reading/calculating face flux field phi

Selecting incompressible transport model Newtonian
Selecting turbulence model type RAS
Selecting RAS turbulence model SpalartAllmaras
Selecting patchDistMethod meshWave
ft2 term: inactive
RAS
{
    RASModel        SpalartAllmaras;
    turbulence      on;
    printCoeffs     on;
    sigmaNut        0.66666;
    kappa           0.41;
    Cb1             0.1355;
    Cb2             0.622;
    Cw2             0.3;
    Cw3             2;
    Cv1             7.1;
    Cs              0.3;
    ck              0.07000000000000001;
    ft2             false;
    Ct3             1.2;
    Ct4             0.5;
}

No MRF models present

Creating finite volume options from "system/fvOptions"

Selecting finite volume options type velocityDampingConstraint
    Source: velocityDamping
    - selecting all cells
    - selected 12614272 cell(s) with volume 55.65166103217553

Starting time loop

--> FOAM Warning : 
    From bool Foam::functionObjectList::read()
    in file db/functionObjects/functionObjectList/functionObjectList.C at line 1035
    Reading "system/controlDict" at line 2 to 41
    Entry 'lref' is not a dictionary
--> FOAM Warning : 
    From bool Foam::functionObjectList::read()
    in file db/functionObjects/functionObjectList/functionObjectList.C at line 1035
    Reading "system/controlDict" at line 2 to 41
    Entry 'Aref' is not a dictionary
--> FOAM Warning : 
    From bool Foam::functionObjectList::read()
    in file db/functionObjects/functionObjectList/functionObjectList.C at line 1035
    Reading "system/controlDict" at line 2 to 41
    Entry 'yawAngle' is not a dictionary
--> FOAM Warning : 
    From bool Foam::functionObjectList::read()
    in file db/functionObjects/functionObjectList/functionObjectList.C at line 1035
    Reading "system/controlDict" at line 2 to 41
    Entry 'lDomain' is not a dictionary
--> FOAM Warning : 
    From bool Foam::functionObjectList::read()
    in file db/functionObjects/functionObjectList/functionObjectList.C at line 1035
    Reading "system/controlDict" at line 2 to 41
    Entry 'bDomain' is not a dictionary
--> FOAM Warning : 
    From bool Foam::functionObjectList::read()
    in file db/functionObjects/functionObjectList/functionObjectList.C at line 1035
    Reading "system/controlDict" at line 2 to 41
    Entry 'hDomain' is not a dictionary
--> FOAM Warning : 
    From bool Foam::functionObjectList::read()
    in file db/functionObjects/functionObjectList/functionObjectList.C at line 1035
    Reading "system/controlDict" at line 2 to 41
    Entry 'xCenter' is not a dictionary
--> FOAM Warning : 
    From bool Foam::functionObjectList::read()
    in file db/functionObjects/functionObjectList/functionObjectList.C at line 1035
    Reading "system/controlDict" at line 2 to 41
    Entry 'yCenter' is not a dictionary
--> FOAM Warning : 
    From bool Foam::functionObjectList::read()
    in file db/functionObjects/functionObjectList/functionObjectList.C at line 1035
    Reading "system/controlDict" at line 2 to 41
    Entry 'zCenter' is not a dictionary
--> FOAM Warning : 
    From bool Foam::functionObjectList::read()
    in file db/functionObjects/functionObjectList/functionObjectList.C at line 1035
    Reading "system/controlDict" at line 2 to 41
    Entry 'inletPatch' is not a dictionary
--> FOAM Warning : 
    From bool Foam::functionObjectList::read()
    in file db/functionObjects/functionObjectList/functionObjectList.C at line 1035
    Reading "system/controlDict" at line 2 to 41
    Entry 'outletPatch' is not a dictionary
--> FOAM Warning : 
    From bool Foam::functionObjectList::read()
    in file db/functionObjects/functionObjectList/functionObjectList.C at line 1035
    Reading "system/controlDict" at line 2 to 41
    Entry 'wallPatches' is not a dictionary
--> FOAM Warning : 
    From bool Foam::functionObjectList::read()
    in file db/functionObjects/functionObjectList/functionObjectList.C at line 1035
    Reading "system/controlDict" at line 2 to 41
    Entry 'forcesWallPatches' is not a dictionary
--> FOAM Warning : 
    From bool Foam::functionObjectList::read()
    in file db/functionObjects/functionObjectList/functionObjectList.C at line 1035
    Reading "system/controlDict" at line 2 to 41
    Entry 'symmPatches' is not a dictionary
--> FOAM Warning : 
    From bool Foam::functionObjectList::read()
    in file db/functionObjects/functionObjectList/functionObjectList.C at line 1035
    Reading "system/controlDict" at line 2 to 41
    Entry 'Uinf' is not a dictionary
--> FOAM Warning : 
    From bool Foam::functionObjectList::read()
    in file db/functionObjects/functionObjectList/functionObjectList.C at line 1035
    Reading "system/controlDict" at line 2 to 41
    Entry 'UinfMag' is not a dictionary
--> FOAM Warning : 
    From bool Foam::functionObjectList::read()
    in file db/functionObjects/functionObjectList/functionObjectList.C at line 1035
    Reading "system/controlDict" at line 2 to 41
    Entry 'nu' is not a dictionary
--> FOAM Warning : 
    From bool Foam::functionObjectList::read()
    in file db/functionObjects/functionObjectList/functionObjectList.C at line 1035
    Reading "system/controlDict" at line 2 to 41
    Entry 'pref' is not a dictionary
--> FOAM Warning : 
    From bool Foam::functionObjectList::read()
    in file db/functionObjects/functionObjectList/functionObjectList.C at line 1035
    Reading "system/controlDict" at line 2 to 41
    Entry 'viscRatio' is not a dictionary
--> FOAM Warning : 
    From bool Foam::functionObjectList::read()
    in file db/functionObjects/functionObjectList/functionObjectList.C at line 1035
    Reading "system/controlDict" at line 2 to 41
    Entry 'Tu' is not a dictionary
--> FOAM Warning : 
    From bool Foam::functionObjectList::read()
    in file db/functionObjects/functionObjectList/functionObjectList.C at line 1035
    Reading "system/controlDict" at line 2 to 41
    Entry 'LESturbModel' is not a dictionary
--> FOAM Warning : 
    From bool Foam::functionObjectList::read()
    in file db/functionObjects/functionObjectList/functionObjectList.C at line 1035
    Reading "system/controlDict" at line 2 to 41
    Entry 'RASturbModel' is not a dictionary
--> FOAM Warning : 
    From bool Foam::functionObjectList::read()
    in file db/functionObjects/functionObjectList/functionObjectList.C at line 1035
    Reading "system/controlDict" at line 2 to 41
    Entry 'deltaTurb' is not a dictionary
--> FOAM Warning : 
    From bool Foam::functionObjectList::read()
    in file db/functionObjects/functionObjectList/functionObjectList.C at line 1035
    Reading "system/controlDict" at line 2 to 41
    Entry 'dt' is not a dictionary
--> FOAM Warning : 
    From bool Foam::functionObjectList::read()
    in file db/functionObjects/functionObjectList/functionObjectList.C at line 1035
    Reading "system/controlDict" at line 2 to 41
    Entry 'tAvg' is not a dictionary
--> FOAM Warning : 
    From bool Foam::functionObjectList::read()
    in file db/functionObjects/functionObjectList/functionObjectList.C at line 1035
    Reading "system/controlDict" at line 2 to 41
    Entry 'tEnd' is not a dictionary
--> FOAM Warning : 
    From bool Foam::functionObjectList::read()
    in file db/functionObjects/functionObjectList/functionObjectList.C at line 1035
    Reading "system/controlDict" at line 2 to 41
    Entry 'writeInterval_' is not a dictionary
--> FOAM Warning : 
    From bool Foam::functionObjectList::read()
    in file db/functionObjects/functionObjectList/functionObjectList.C at line 1035
    Reading "system/controlDict" at line 2 to 41
    Entry 'nCores' is not a dictionary
--> FOAM Warning : 
    From bool Foam::functionObjectList::read()
    in file db/functionObjects/functionObjectList/functionObjectList.C at line 1035
    Reading "system/controlDict" at line 2 to 41
    Entry 'interpScheme' is not a dictionary
--> FOAM Warning : 
    From bool Foam::functionObjectList::read()
    in file db/functionObjects/functionObjectList/functionObjectList.C at line 1035
    Reading "system/controlDict" at line 2 to 41
    Entry 'probeField' is not a dictionary
wallShearStress wallShearStress:
    processing wall patches: 
        Windsor_Body
        CFDWT_Floor
        Windsor_Pins
        Windsor_Base
        Windsor_Body_2
        CFDWT_Floor_2
        Windsor_Pins_2
        Windsor_Base_2

pressure calc_cp:
    Operating mode: staticCoeff
    Not including hydrostatic effects

forceCoeffs forceCoeffsAll:
    rho: rhoInf
    Freestream density (rhoInf) set to 1
    Not including porosity effects
    magUInf: 40
    lRef   : 0.6375
    Aref   : 0.1124
    rhoInf : 1
    Selecting all coefficients
    - Drag force: Cd
    - Drag force front: Cd(f)
    - Drag force rear: Cd(r)
    - Lift force: Cl
    - Lift force front: Cl(f)
    - Lift force rear: Cl(r)
    - Pitch moment: CmPitch
    - Roll moment: CmRoll
    - Yaw moment: CmYaw
    - Side force: Cs
    - Side force front: Cs(f)
    - Side force rear: Cs(r)


forceCoeffs dragCoeffBase:
    rho: rhoInf
    Freestream density (rhoInf) set to 1
    Not including porosity effects
    magUInf: 40
    lRef   : 0.6375
    Aref   : 0.1124
    rhoInf : 1
    Selecting coefficients:
    - Drag force: Cd


Time = 1

velocityDampingConstraint velocityDamping damped 0 (0%) of cells, with max limit 300
[INFO] MatrixAssemblyU: 895.654 [ms]
[OGL LOG][lduLduBase.H:119] Initialising OGL
	OGL commit:  4647ee1+
	Branch: PersistentDeviceIdGuard 
	Build type: Release
	Ginkgo version: 1.5.0 ( develop)
	Ginkgo commit: 4292ffdee
	MPI is GPU aware: 1
	Forces host buffer based communication: 0
	CPU ranks per GPU: 1
	Matrix format: Coo
	End OGL_INFO
[OGL LOG][Proc: 0]: global_index_init: 9.489000000000001 [ms]
[OGL LOG][Proc: 0]Ux_local_cols: call_init: 0.026 [ms]
[OGL LOG][Proc: 0]Ux_local_rows: call_init: 0.003 [ms]
[OGL LOG][Proc: 0]Ux_local_ldu_map: call_init: 0.003 [ms]
[OGL LOG][Proc: 0]Ux_local_coeffs: call_init: 0.006 [ms]
[OGL LOG][Proc: 0]Ux_non_local_cols: call_init: 0.003 [ms]
[OGL LOG][Proc: 0]Ux_non_local_rows: call_init: 0.002 [ms]
[OGL LOG][Proc: 0]Ux_non_local_ldu_map: call_init: 0.003 [ms]
[OGL LOG][Proc: 0]Ux_non_local_coeffs: call_init: 0.003 [ms]
[OGL LOG][Proc: 0]Ux: init_local_sparsity_pattern: 119.847 [ms]
[OGL LOG][Proc: 0]Ux: init_non_local_sparsity_pattern: 1.64 [ms]
[OGL LOG][Proc: 0]Ux: update_local_matrix_data: 19.264 [ms]
[OGL LOG][Proc: 0]Ux: update_non_local_matrix_data: 0.137 [ms]
[OGL LOG][Proc: 0]device_partition: call_init: 3.506 [ms]
[OGL LOG][Proc: 0]Ux_matrix: call_init: 121.926 [ms]
[OGL LOG][Proc: 0]Ux_rhs: call_init: 8.573 [ms]
[OGL LOG][Proc: 0]Ux_solution: call_init: 1.209 [ms]
[OGL LOG][Preconditioner.H:121] Generate preconditioner BJ MaxBlockSize 1
[OGL LOG][Proc: 0]Ux: init_precond: 5.714 [ms]
[OGL LOG][StoppingCriterion.H:373] Creating stopping criterion with minIter 0 frequency 1
[OGL LOG][Proc: 0]Ux: generate_solver: 0.02 [ms]
[OGL LOG][Proc: 0]Ux: solve: 2335.058 [ms]
[OGL LOG][Proc: 0]Ux: copy_x_back: 1.945 [ms]
[OGL LOG][lduLduBase.H:336] 
Statistics:
	Time per iteration: 97294 [mu s]
	Time per residual norm calculation: 1815.000000 [mu s]
	Time per iteration and DOF: 7.713010 [ns]
	Retrieve results bandwidth 1.948000 [GByte/s]
[OGL LOG][Proc: 0]Ux: solve_multi_gpu: 2479.249 [ms]
BJhipGKOBiCGStab:  Solving for Ux, Initial residual = 1.000000000000097, Final residual = 0.05875049135183018, No Iterations 24
[OGL LOG][lduLduBase.H:119] Initialising OGL
	OGL commit:  4647ee1+
	Branch: PersistentDeviceIdGuard 
	Build type: Release
	Ginkgo version: 1.5.0 ( develop)
	Ginkgo commit: 4292ffdee
	MPI is GPU aware: 1
	Forces host buffer based communication: 0
	CPU ranks per GPU: 1
	Matrix format: Coo
	End OGL_INFO
[OGL LOG][Proc: 0]: global_index_init: 1.273 [ms]
[OGL LOG][Proc: 0]Uy_local_cols: call_init: 0.006 [ms]
[OGL LOG][Proc: 0]Uy_local_rows: call_init: 0.003 [ms]
[OGL LOG][Proc: 0]Uy_local_ldu_map: call_init: 0.003 [ms]
[OGL LOG][Proc: 0]Uy_local_coeffs: call_init: 0.003 [ms]
[OGL LOG][Proc: 0]Uy_non_local_cols: call_init: 0.003 [ms]
[OGL LOG][Proc: 0]Uy_non_local_rows: call_init: 0.002 [ms]
[OGL LOG][Proc: 0]Uy_non_local_ldu_map: call_init: 0.002 [ms]
[OGL LOG][Proc: 0]Uy_non_local_coeffs: call_init: 0.002 [ms]
[OGL LOG][Proc: 0]Uy: init_local_sparsity_pattern: 131.717 [ms]
[OGL LOG][Proc: 0]Uy: init_non_local_sparsity_pattern: 0.9410000000000001 [ms]
[OGL LOG][Proc: 0]Uy: update_local_matrix_data: 21.534 [ms]
[OGL LOG][Proc: 0]Uy: update_non_local_matrix_data: 0.141 [ms]
[OGL LOG][Proc: 0]Uy_matrix: call_init: 77.998 [ms]
[OGL LOG][Proc: 0]Uy_rhs: call_init: 13.215 [ms]
[OGL LOG][Proc: 0]Uy_solution: call_init: 1.456 [ms]
[OGL LOG][Preconditioner.H:121] Generate preconditioner BJ MaxBlockSize 1
[OGL LOG][Proc: 0]Uy: init_precond: 0.743 [ms]
[OGL LOG][StoppingCriterion.H:373] Creating stopping criterion with minIter 0 frequency 1
[OGL LOG][Proc: 0]Uy: generate_solver: 0.001 [ms]
[OGL LOG][Proc: 0]Uy: solve: 229.37 [ms]
[OGL LOG][Proc: 0]Uy: copy_x_back: 2.022 [ms]
[OGL LOG][lduLduBase.H:336] 
Statistics:
	Time per iteration: 4410 [mu s]
	Time per residual norm calculation: 321.000000 [mu s]
	Time per iteration and DOF: 0.349604 [ns]
	Retrieve results bandwidth 1.874000 [GByte/s]
[OGL LOG][Proc: 0]Uy: solve_multi_gpu: 326.004 [ms]
BJhipGKOBiCGStab:  Solving for Uy, Initial residual = 1.000000000000001, Final residual = 0.06026210381756576, No Iterations 52
[OGL LOG][lduLduBase.H:119] Initialising OGL
	OGL commit:  4647ee1+
	Branch: PersistentDeviceIdGuard 
	Build type: Release
	Ginkgo version: 1.5.0 ( develop)
	Ginkgo commit: 4292ffdee
	MPI is GPU aware: 1
	Forces host buffer based communication: 0
	CPU ranks per GPU: 1
	Matrix format: Coo
	End OGL_INFO
[OGL LOG][Proc: 0]: global_index_init: 0.874 [ms]
[OGL LOG][Proc: 0]Uz_local_cols: call_init: 0.006 [ms]
[OGL LOG][Proc: 0]Uz_local_rows: call_init: 0.003 [ms]
[OGL LOG][Proc: 0]Uz_local_ldu_map: call_init: 0.003 [ms]
[OGL LOG][Proc: 0]Uz_local_coeffs: call_init: 0.003 [ms]
[OGL LOG][Proc: 0]Uz_non_local_cols: call_init: 0.003 [ms]
[OGL LOG][Proc: 0]Uz_non_local_rows: call_init: 0.003 [ms]
[OGL LOG][Proc: 0]Uz_non_local_ldu_map: call_init: 0.002 [ms]
[OGL LOG][Proc: 0]Uz_non_local_coeffs: call_init: 0.002 [ms]
[OGL LOG][Proc: 0]Uz: init_local_sparsity_pattern: 131.18 [ms]
[OGL LOG][Proc: 0]Uz: init_non_local_sparsity_pattern: 0.9420000000000001 [ms]
[OGL LOG][Proc: 0]Uz: update_local_matrix_data: 14.77 [ms]
[OGL LOG][Proc: 0]Uz: update_non_local_matrix_data: 0.152 [ms]
[OGL LOG][Proc: 0]Uz_matrix: call_init: 84.40600000000001 [ms]
[OGL LOG][Proc: 0]Uz_rhs: call_init: 3.118 [ms]
[OGL LOG][Proc: 0]Uz_solution: call_init: 1.523 [ms]
[OGL LOG][Preconditioner.H:121] Generate preconditioner BJ MaxBlockSize 1
[OGL LOG][Proc: 0]Uz: init_precond: 0.6980000000000001 [ms]
[OGL LOG][StoppingCriterion.H:373] Creating stopping criterion with minIter 0 frequency 1
[OGL LOG][Proc: 0]Uz: generate_solver: 0.001 [ms]
[OGL LOG][Proc: 0]Uz: solve: 65.13800000000001 [ms]
[OGL LOG][Proc: 0]Uz: copy_x_back: 2.01 [ms]
[OGL LOG][lduLduBase.H:336] 
Statistics:
	Time per iteration: 65138 [mu s]
	Time per residual norm calculation: 330.000000 [mu s]
	Time per iteration and DOF: 5.163833 [ns]
	Retrieve results bandwidth 1.885000 [GByte/s]
[OGL LOG][Proc: 0]Uz: solve_multi_gpu: 158.084 [ms]
BJhipGKOBiCGStab:  Solving for Uz, Initial residual = 1.000000000000022, Final residual = 0.09952964467305665, No Iterations 1
[INFO] MomentumPredictor: 3843.669 [ms]
[INFO] MatrixAssemblyPI: 164.695 [ms]
[INFO] MatrixAssemblyPII: 75.08199999999999 [ms]
GAMG:  Solving for p, Initial residual = 1, Final residual = 0.009586081975249574, No Iterations 25
[INFO] SolveP: 2091.258 [ms]
time step continuity errors : sum local = 0.003519656592870898, global = 7.042682501311373e-06, cumulative = 7.042682501311373e-06
[INFO] postSolveP: 41.22 [ms]
[OGL LOG][lduLduBase.H:119] Initialising OGL
	OGL commit:  4647ee1+
	Branch: PersistentDeviceIdGuard 
	Build type: Release
	Ginkgo version: 1.5.0 ( develop)
	Ginkgo commit: 4292ffdee
	MPI is GPU aware: 1
	Forces host buffer based communication: 0
	CPU ranks per GPU: 1
	Matrix format: Coo
	End OGL_INFO
[OGL LOG][Proc: 0]: global_index_init: 0.249 [ms]
[OGL LOG][Proc: 0]nuTilda_local_cols: call_init: 0.009000000000000001 [ms]
[OGL LOG][Proc: 0]nuTilda_local_rows: call_init: 0.004 [ms]
[OGL LOG][Proc: 0]nuTilda_local_ldu_map: call_init: 0.004 [ms]
[OGL LOG][Proc: 0]nuTilda_local_coeffs: call_init: 0.005 [ms]
[OGL LOG][Proc: 0]nuTilda_non_local_cols: call_init: 0.004 [ms]
[OGL LOG][Proc: 0]nuTilda_non_local_rows: call_init: 0.003 [ms]
[OGL LOG][Proc: 0]nuTilda_non_local_ldu_map: call_init: 0.004 [ms]
[OGL LOG][Proc: 0]nuTilda_non_local_coeffs: call_init: 0.004 [ms]
[OGL LOG][Proc: 0]nuTilda: init_local_sparsity_pattern: 120.25 [ms]
[OGL LOG][Proc: 0]nuTilda: init_non_local_sparsity_pattern: 0.987 [ms]
[OGL LOG][Proc: 0]nuTilda: update_local_matrix_data: 17.68 [ms]
[OGL LOG][Proc: 0]nuTilda: update_non_local_matrix_data: 0.215 [ms]
[OGL LOG][Proc: 0]nuTilda_matrix: call_init: 79.438 [ms]
[OGL LOG][Proc: 0]nuTilda_rhs: call_init: 3.465 [ms]
[OGL LOG][Proc: 0]nuTilda_solution: call_init: 5.289 [ms]
[OGL LOG][Preconditioner.H:121] Generate preconditioner BJ MaxBlockSize 1
[OGL LOG][Proc: 0]nuTilda: init_precond: 0.7020000000000001 [ms]
[OGL LOG][StoppingCriterion.H:373] Creating stopping criterion with minIter 0 frequency 1
[OGL LOG][Proc: 0]nuTilda: generate_solver: 0.001 [ms]
[OGL LOG][Proc: 0]nuTilda: solve: 69.66 [ms]
[OGL LOG][Proc: 0]nuTilda: copy_x_back: 2.176 [ms]
[OGL LOG][lduLduBase.H:336] 
Statistics:
	Time per iteration: 34830 [mu s]
	Time per residual norm calculation: 304.000000 [mu s]
	Time per iteration and DOF: 2.761158 [ns]
	Retrieve results bandwidth 1.741000 [GByte/s]
[OGL LOG][Proc: 0]nuTilda: solve_multi_gpu: 161.809 [ms]
BJhipGKOBiCGStab:  Solving for nuTilda, Initial residual = 0.9999999999971096, Final residual = 0.09407074521044977, No Iterations 2
[INFO] TimeStep: 7882.972 [ms]
ExecutionTime = 19.53 s  ClockTime = 20 s

--> FOAM Warning : 
    From virtual bool Foam::functionObjects::fieldSelection::checkSelection()
    in file functionObjects/fieldSelections/fieldSelection/fieldSelection.C at line 166
    Field k not found
--> FOAM Warning : 
    From virtual bool Foam::functionObjects::fieldSelection::checkSelection()
    in file functionObjects/fieldSelections/fieldSelection/fieldSelection.C at line 166
    Field gammaInt not found
--> FOAM Warning : 
    From virtual bool Foam::functionObjects::fieldSelection::checkSelection()
    in file functionObjects/fieldSelections/fieldSelection/fieldSelection.C at line 166
    Field omega not found
--> FOAM Warning : 
    From virtual bool Foam::functionObjects::fieldSelection::checkSelection()
    in file functionObjects/fieldSelections/fieldSelection/fieldSelection.C at line 166
    Field ReThetat not found
--> FOAM Warning : 
    From virtual bool Foam::functionObjects::fieldSelection::checkSelection()
    in file functionObjects/fieldSelections/fieldSelection/fieldSelection.C at line 166
    Field epsilon not found
--> FOAM Warning : 
    From virtual bool Foam::functionObjects::solverFieldSelection::updateSelection()
    in file functionObjects/fieldSelections/solverFieldSelection/solverFieldSelection.C at line 85
    Valid solver fields are: 3(U nuTilda p)Time = 2

velocityDampingConstraint velocityDamping damped 0 (0%) of cells, with max limit 300
[INFO] MatrixAssemblyU: 846.2089999999999 [ms]
[OGL LOG][Proc: 0]: global_index_init: 0.259 [ms]
[OGL LOG][Proc: 0]Ux_local_coeffs: call_update: 0.001 [ms]
[OGL LOG][Proc: 0]Ux_non_local_coeffs: call_update: 0 [ms]
[OGL LOG][Proc: 0]Ux: update_local_matrix_data: 19.255 [ms]
[OGL LOG][Proc: 0]Ux: update_non_local_matrix_data: 0.098 [ms]
[OGL LOG][Proc: 0]Ux_matrix: call_update: 6.72 [ms]
[OGL LOG][Proc: 0]Ux_rhs: call_update: 2.062 [ms]
[OGL LOG][Preconditioner.H:121] Generate preconditioner BJ MaxBlockSize 1
[OGL LOG][Proc: 0]Ux: init_precond: 0.6930000000000001 [ms]
[OGL LOG][StoppingCriterion.H:373] Creating stopping criterion with minIter 28 frequency 1
[OGL LOG][Proc: 0]Ux: generate_solver: 0.001 [ms]
[OGL LOG][Proc: 0]Ux: solve: 75.131 [ms]
[OGL LOG][Proc: 0]Ux: copy_x_back: 1.928 [ms]
[OGL LOG][lduLduBase.H:336] 
Statistics:
	Time per iteration: 5366 [mu s]
	Time per residual norm calculation: 315.000000 [mu s]
	Time per iteration and DOF: 0.425391 [ns]
	Retrieve results bandwidth 1.966000 [GByte/s]
[OGL LOG][Proc: 0]Ux: solve_multi_gpu: 87.60600000000001 [ms]
BJhipGKOBiCGStab:  Solving for Ux, Initial residual = 0.6034642474548298, Final residual = 0.03883877125241122, No Iterations 14
[OGL LOG][Proc: 0]: global_index_init: 0.387 [ms]
[OGL LOG][Proc: 0]Uy_local_coeffs: call_update: 0 [ms]
[OGL LOG][Proc: 0]Uy_non_local_coeffs: call_update: 0 [ms]
[OGL LOG][Proc: 0]Uy: update_local_matrix_data: 20.013 [ms]
[OGL LOG][Proc: 0]Uy: update_non_local_matrix_data: 0.074 [ms]
[OGL LOG][Proc: 0]Uy_matrix: call_update: 4.547 [ms]
[OGL LOG][Proc: 0]Uy_rhs: call_update: 11.119 [ms]
[OGL LOG][Preconditioner.H:121] Generate preconditioner BJ MaxBlockSize 1
[OGL LOG][Proc: 0]Uy: init_precond: 0.635 [ms]
[OGL LOG][StoppingCriterion.H:373] Creating stopping criterion with minIter 62 frequency 1
[OGL LOG][Proc: 0]Uy: generate_solver: 0.001 [ms]
[OGL LOG][Proc: 0]Uy: solve: 141.906 [ms]
[OGL LOG][Proc: 0]Uy: copy_x_back: 2.034 [ms]
[OGL LOG][lduLduBase.H:336] 
Statistics:
	Time per iteration: 4577 [mu s]
	Time per residual norm calculation: 318.000000 [mu s]
	Time per iteration and DOF: 0.362843 [ns]
	Retrieve results bandwidth 1.863000 [GByte/s]
[OGL LOG][Proc: 0]Uy: solve_multi_gpu: 161.288 [ms]
BJhipGKOBiCGStab:  Solving for Uy, Initial residual = 0.9975354910962771, Final residual = 0.00134739149755432, No Iterations 31
[OGL LOG][Proc: 0]: global_index_init: 1.17 [ms]
[OGL LOG][Proc: 0]Uz_local_coeffs: call_update: 0 [ms]
[OGL LOG][Proc: 0]Uz_non_local_coeffs: call_update: 0 [ms]
[OGL LOG][Proc: 0]Uz: update_local_matrix_data: 21.966 [ms]
[OGL LOG][Proc: 0]Uz: update_non_local_matrix_data: 0.097 [ms]
[OGL LOG][Proc: 0]Uz_matrix: call_update: 4.898 [ms]
[OGL LOG][Proc: 0]Uz_rhs: call_update: 1.404 [ms]
[OGL LOG][Preconditioner.H:121] Generate preconditioner BJ MaxBlockSize 1
[OGL LOG][Proc: 0]Uz: init_precond: 0.531 [ms]
[OGL LOG][StoppingCriterion.H:373] Creating stopping criterion with minIter 1 frequency 1
[OGL LOG][Proc: 0]Uz: generate_solver: 0.003 [ms]
[OGL LOG][Proc: 0]Uz: solve: 72.791 [ms]
[OGL LOG][Proc: 0]Uz: copy_x_back: 2.005 [ms]
[OGL LOG][lduLduBase.H:336] 
Statistics:
	Time per iteration: 6617 [mu s]
	Time per residual norm calculation: 322.000000 [mu s]
	Time per iteration and DOF: 0.524565 [ns]
	Retrieve results bandwidth 1.890000 [GByte/s]
[OGL LOG][Proc: 0]Uz: solve_multi_gpu: 82.672 [ms]
BJhipGKOBiCGStab:  Solving for Uz, Initial residual = 0.9999480612784778, Final residual = 0.07575635872018521, No Iterations 11
[INFO] MomentumPredictor: 472.059 [ms]
[INFO] MatrixAssemblyPI: 156.203 [ms]
[INFO] MatrixAssemblyPII: 76.871 [ms]
GAMG:  Solving for p, Initial residual = 0.2206184357450587, Final residual = 0.001983126946780165, No Iterations 13
[INFO] SolveP: 964.518 [ms]
time step continuity errors : sum local = 0.04086192254972398, global = -0.0003030024363997683, cumulative = -0.0002959597538984569
[INFO] postSolveP: 43.903 [ms]
[OGL LOG][Proc: 0]: global_index_init: 1.924 [ms]
[OGL LOG][Proc: 0]nuTilda_local_coeffs: call_update: 0 [ms]
[OGL LOG][Proc: 0]nuTilda_non_local_coeffs: call_update: 0 [ms]
[OGL LOG][Proc: 0]nuTilda: update_local_matrix_data: 20.305 [ms]
[OGL LOG][Proc: 0]nuTilda: update_non_local_matrix_data: 0.111 [ms]
[OGL LOG][Proc: 0]nuTilda_matrix: call_update: 6.124000000000001 [ms]
[OGL LOG][Proc: 0]nuTilda_rhs: call_update: 1.093 [ms]
[OGL LOG][Preconditioner.H:121] Generate preconditioner BJ MaxBlockSize 1
[OGL LOG][Proc: 0]nuTilda: init_precond: 0.5640000000000001 [ms]
[OGL LOG][StoppingCriterion.H:373] Creating stopping criterion with minIter 3 frequency 1
[OGL LOG][Proc: 0]nuTilda: generate_solver: 0.001 [ms]
[OGL LOG][Proc: 0]nuTilda: solve: 46.018 [ms]
[OGL LOG][Proc: 0]nuTilda: copy_x_back: 2.031 [ms]
[OGL LOG][lduLduBase.H:336] 
Statistics:
	Time per iteration: 23009 [mu s]
	Time per residual norm calculation: 325.000000 [mu s]
	Time per iteration and DOF: 1.824045 [ns]
	Retrieve results bandwidth 1.866000 [GByte/s]
[OGL LOG][Proc: 0]nuTilda: solve_multi_gpu: 56.958 [ms]
BJhipGKOBiCGStab:  Solving for nuTilda, Initial residual = 0.4031316875197086, Final residual = 0.006119342350417245, No Iterations 2
[INFO] TimeStep: 3113.754 [ms]
ExecutionTime = 23.28 s  ClockTime = 24 s

Time = 3

velocityDampingConstraint velocityDamping damped 1788 (0.01%) of cells, with max limit 300
[INFO] MatrixAssemblyU: 846.605 [ms]
[OGL LOG][Proc: 0]: global_index_init: 1.539 [ms]
[OGL LOG][Proc: 0]Ux_local_coeffs: call_update: 0 [ms]
[OGL LOG][Proc: 0]Ux_non_local_coeffs: call_update: 0 [ms]
[OGL LOG][Proc: 0]Ux: update_local_matrix_data: 19.92 [ms]
[OGL LOG][Proc: 0]Ux: update_non_local_matrix_data: 0.171 [ms]
[OGL LOG][Proc: 0]Ux_matrix: call_update: 6.262 [ms]
[OGL LOG][Proc: 0]Ux_rhs: call_update: 4.286 [ms]
[OGL LOG][Preconditioner.H:121] Generate preconditioner BJ MaxBlockSize 1
[OGL LOG][Proc: 0]Ux: init_precond: 0.629 [ms]
[OGL LOG][StoppingCriterion.H:373] Creating stopping criterion with minIter 17 frequency 1
[OGL LOG][Proc: 0]Ux: generate_solver: 0.001 [ms]
[OGL LOG][Proc: 0]Ux: solve: 91.348 [ms]
[OGL LOG][Proc: 0]Ux: copy_x_back: 2.064 [ms]
[OGL LOG][lduLduBase.H:336] 
Statistics:
	Time per iteration: 6524 [mu s]
	Time per residual norm calculation: 326.000000 [mu s]
	Time per iteration and DOF: 0.517192 [ns]
	Retrieve results bandwidth 1.836000 [GByte/s]
[OGL LOG][Proc: 0]Ux: solve_multi_gpu: 105.728 [ms]
BJhipGKOBiCGStab:  Solving for Ux, Initial residual = 0.1288055604188522, Final residual = 0.006197582185063139, No Iterations 14
[OGL LOG][Proc: 0]: global_index_init: 0.163 [ms]
[OGL LOG][Proc: 0]Uy_local_coeffs: call_update: 0 [ms]
[OGL LOG][Proc: 0]Uy_non_local_coeffs: call_update: 0 [ms]
[OGL LOG][Proc: 0]Uy: update_local_matrix_data: 20.203 [ms]
[OGL LOG][Proc: 0]Uy: update_non_local_matrix_data: 0.093 [ms]
[OGL LOG][Proc: 0]Uy_matrix: call_update: 7.664000000000001 [ms]
[OGL LOG][Proc: 0]Uy_rhs: call_update: 1.16 [ms]
[OGL LOG][Preconditioner.H:121] Generate preconditioner BJ MaxBlockSize 1
[OGL LOG][Proc: 0]Uy: init_precond: 0.5700000000000001 [ms]
[OGL LOG][StoppingCriterion.H:373] Creating stopping criterion with minIter 37 frequency 1
[OGL LOG][Proc: 0]Uy: generate_solver: 0.001 [ms]
[OGL LOG][Proc: 0]Uy: solve: 87.176 [ms]
[OGL LOG][Proc: 0]Uy: copy_x_back: 2.06 [ms]
[OGL LOG][lduLduBase.H:336] 
Statistics:
	Time per iteration: 4588 [mu s]
	Time per residual norm calculation: 332.000000 [mu s]
	Time per iteration and DOF: 0.363715 [ns]
	Retrieve results bandwidth 1.840000 [GByte/s]
[OGL LOG][Proc: 0]Uy: solve_multi_gpu: 99.726 [ms]
BJhipGKOBiCGStab:  Solving for Uy, Initial residual = 0.2858590207312648, Final residual = 0.01173722642644474, No Iterations 19
[OGL LOG][Proc: 0]: global_index_init: 0.24 [ms]
[OGL LOG][Proc: 0]Uz_local_coeffs: call_update: 0 [ms]
[OGL LOG][Proc: 0]Uz_non_local_coeffs: call_update: 0 [ms]
[OGL LOG][Proc: 0]Uz: update_local_matrix_data: 19.365 [ms]
[OGL LOG][Proc: 0]Uz: update_non_local_matrix_data: 0.091 [ms]
[OGL LOG][Proc: 0]Uz_matrix: call_update: 6.687 [ms]
[OGL LOG][Proc: 0]Uz_rhs: call_update: 6.204 [ms]
[OGL LOG][Preconditioner.H:121] Generate preconditioner BJ MaxBlockSize 1
[OGL LOG][Proc: 0]Uz: init_precond: 0.547 [ms]
[OGL LOG][StoppingCriterion.H:373] Creating stopping criterion with minIter 13 frequency 1
[OGL LOG][Proc: 0]Uz: generate_solver: 0.001 [ms]
[OGL LOG][Proc: 0]Uz: solve: 74.471 [ms]
[OGL LOG][Proc: 0]Uz: copy_x_back: 2.036 [ms]
[OGL LOG][lduLduBase.H:336] 
Statistics:
	Time per iteration: 6770 [mu s]
	Time per residual norm calculation: 324.000000 [mu s]
	Time per iteration and DOF: 0.536694 [ns]
	Retrieve results bandwidth 1.861000 [GByte/s]
[OGL LOG][Proc: 0]Uz: solve_multi_gpu: 90.973 [ms]
BJhipGKOBiCGStab:  Solving for Uz, Initial residual = 0.2675246616834691, Final residual = 0.02511149570063797, No Iterations 11
[INFO] MomentumPredictor: 436.129 [ms]
[INFO] MatrixAssemblyPI: 165.591 [ms]
[INFO] MatrixAssemblyPII: 74.56699999999999 [ms]
GAMG:  Solving for p, Initial residual = 0.1780032853344601, Final residual = 0.001575927567119827, No Iterations 11
[INFO] SolveP: 826.857 [ms]
time step continuity errors : sum local = 0.01924290972546172, global = -5.594802429134996e-05, cumulative = -0.0003519077781898069
[INFO] postSolveP: 39.763 [ms]
[OGL LOG][Proc: 0]: global_index_init: 0.046 [ms]
[OGL LOG][Proc: 0]nuTilda_local_coeffs: call_update: 0 [ms]
[OGL LOG][Proc: 0]nuTilda_non_local_coeffs: call_update: 0 [ms]
[OGL LOG][Proc: 0]nuTilda: update_local_matrix_data: 20.407 [ms]
[OGL LOG][Proc: 0]nuTilda: update_non_local_matrix_data: 0.331 [ms]
[OGL LOG][Proc: 0]nuTilda_matrix: call_update: 7.278 [ms]
[OGL LOG][Proc: 0]nuTilda_rhs: call_update: 3.902 [ms]
[OGL LOG][Preconditioner.H:121] Generate preconditioner BJ MaxBlockSize 1
[OGL LOG][Proc: 0]nuTilda: init_precond: 0.638 [ms]
[OGL LOG][StoppingCriterion.H:373] Creating stopping criterion with minIter 2 frequency 1
[OGL LOG][Proc: 0]nuTilda: generate_solver: 0.001 [ms]
[OGL LOG][Proc: 0]nuTilda: solve: 44.049 [ms]
[OGL LOG][Proc: 0]nuTilda: copy_x_back: 2.059 [ms]
[OGL LOG][lduLduBase.H:336] 
Statistics:
	Time per iteration: 22024 [mu s]
	Time per residual norm calculation: 743.000000 [mu s]
	Time per iteration and DOF: 1.745959 [ns]
	Retrieve results bandwidth 1.840000 [GByte/s]
[OGL LOG][Proc: 0]nuTilda: solve_multi_gpu: 59.115 [ms]
BJhipGKOBiCGStab:  Solving for nuTilda, Initial residual = 0.1876596300516731, Final residual = 0.014213572992607, No Iterations 2
bounding nuTilda, min: -2.148028998200874e-05 max: 0.0009015562921798419 average: 7.991550277751909e-05
[INFO] TimeStep: 2974.334 [ms]
ExecutionTime = 26.89 s  ClockTime = 27 s

Time = 4

velocityDampingConstraint velocityDamping damped 145 (0%) of cells, with max limit 300
[INFO] MatrixAssemblyU: 860.38 [ms]
[OGL LOG][Proc: 0]: global_index_init: 0.194 [ms]
[OGL LOG][Proc: 0]Ux_local_coeffs: call_update: 0 [ms]
[OGL LOG][Proc: 0]Ux_non_local_coeffs: call_update: 0 [ms]
[OGL LOG][Proc: 0]Ux: update_local_matrix_data: 19.792 [ms]
[OGL LOG][Proc: 0]Ux: update_non_local_matrix_data: 0.08799999999999999 [ms]
[OGL LOG][Proc: 0]Ux_matrix: call_update: 8.303000000000001 [ms]
[OGL LOG][Proc: 0]Ux_rhs: call_update: 1.302 [ms]
[OGL LOG][Preconditioner.H:121] Generate preconditioner BJ MaxBlockSize 1
[OGL LOG][Proc: 0]Ux: init_precond: 0.55 [ms]
[OGL LOG][StoppingCriterion.H:373] Creating stopping criterion with minIter 16 frequency 1
[OGL LOG][Proc: 0]Ux: generate_solver: 0.001 [ms]
[OGL LOG][Proc: 0]Ux: solve: 70.29000000000001 [ms]
[OGL LOG][Proc: 0]Ux: copy_x_back: 2.038 [ms]
[OGL LOG][lduLduBase.H:336] 
Statistics:
	Time per iteration: 7810 [mu s]
	Time per residual norm calculation: 306.000000 [mu s]
	Time per iteration and DOF: 0.619140 [ns]
	Retrieve results bandwidth 1.859000 [GByte/s]
[OGL LOG][Proc: 0]Ux: solve_multi_gpu: 83.578 [ms]
BJhipGKOBiCGStab:  Solving for Ux, Initial residual = 0.1517415380735738, Final residual = 0.01345147316446988, No Iterations 9
[OGL LOG][Proc: 0]: global_index_init: 2.29 [ms]
[OGL LOG][Proc: 0]Uy_local_coeffs: call_update: 0 [ms]
[OGL LOG][Proc: 0]Uy_non_local_coeffs: call_update: 0 [ms]
[OGL LOG][Proc: 0]Uy: update_local_matrix_data: 21.059 [ms]
[OGL LOG][Proc: 0]Uy: update_non_local_matrix_data: 0.09 [ms]
[OGL LOG][Proc: 0]Uy_matrix: call_update: 5.021 [ms]
[OGL LOG][Proc: 0]Uy_rhs: call_update: 2.646 [ms]
[OGL LOG][Preconditioner.H:121] Generate preconditioner BJ MaxBlockSize 1
[OGL LOG][Proc: 0]Uy: init_precond: 0.623 [ms]
[OGL LOG][StoppingCriterion.H:373] Creating stopping criterion with minIter 22 frequency 1
[OGL LOG][Proc: 0]Uy: generate_solver: 0.001 [ms]
[OGL LOG][Proc: 0]Uy: solve: 74.443 [ms]
[OGL LOG][Proc: 0]Uy: copy_x_back: 1.936 [ms]
[OGL LOG][lduLduBase.H:336] 
Statistics:
	Time per iteration: 6203 [mu s]
	Time per residual norm calculation: 350.000000 [mu s]
	Time per iteration and DOF: 0.491745 [ns]
	Retrieve results bandwidth 1.957000 [GByte/s]
[OGL LOG][Proc: 0]Uy: solve_multi_gpu: 85.75700000000001 [ms]
BJhipGKOBiCGStab:  Solving for Uy, Initial residual = 0.1839203206616318, Final residual = 0.01395082367919141, No Iterations 12
[OGL LOG][Proc: 0]: global_index_init: 0.308 [ms]
[OGL LOG][Proc: 0]Uz_local_coeffs: call_update: 0 [ms]
[OGL LOG][Proc: 0]Uz_non_local_coeffs: call_update: 0 [ms]
[OGL LOG][Proc: 0]Uz: update_local_matrix_data: 22.272 [ms]
[OGL LOG][Proc: 0]Uz: update_non_local_matrix_data: 0.093 [ms]
[OGL LOG][Proc: 0]Uz_matrix: call_update: 3.994 [ms]
[OGL LOG][Proc: 0]Uz_rhs: call_update: 3.415 [ms]
[OGL LOG][Preconditioner.H:121] Generate preconditioner BJ MaxBlockSize 1
[OGL LOG][Proc: 0]Uz: init_precond: 0.5720000000000001 [ms]
[OGL LOG][StoppingCriterion.H:373] Creating stopping criterion with minIter 13 frequency 1
[OGL LOG][Proc: 0]Uz: generate_solver: 0.001 [ms]
[OGL LOG][Proc: 0]Uz: solve: 86.098 [ms]
[OGL LOG][Proc: 0]Uz: copy_x_back: 2.01 [ms]
[OGL LOG][lduLduBase.H:336] 
Statistics:
	Time per iteration: 5739 [mu s]
	Time per residual norm calculation: 334.000000 [mu s]
	Time per iteration and DOF: 0.454961 [ns]
	Retrieve results bandwidth 1.885000 [GByte/s]
[OGL LOG][Proc: 0]Uz: solve_multi_gpu: 97.202 [ms]
BJhipGKOBiCGStab:  Solving for Uz, Initial residual = 0.188405622842311, Final residual = 0.01192262316972695, No Iterations 15
[INFO] MomentumPredictor: 409.893 [ms]
[INFO] MatrixAssemblyPI: 168.194 [ms]
[INFO] MatrixAssemblyPII: 75.374 [ms]
GAMG:  Solving for p, Initial residual = 0.1182238258353379, Final residual = 0.001015726598411494, No Iterations 10
[INFO] SolveP: 773.674 [ms]
time step continuity errors : sum local = 0.01351373492384758, global = -0.0001678360708057865, cumulative = -0.0005197438489955934
[INFO] postSolveP: 40.563 [ms]
[OGL LOG][Proc: 0]: global_index_init: 0.136 [ms]
[OGL LOG][Proc: 0]nuTilda_local_coeffs: call_update: 0 [ms]
[OGL LOG][Proc: 0]nuTilda_non_local_coeffs: call_update: 0 [ms]
[OGL LOG][Proc: 0]nuTilda: update_local_matrix_data: 21.13 [ms]
[OGL LOG][Proc: 0]nuTilda: update_non_local_matrix_data: 0.095 [ms]
[OGL LOG][Proc: 0]nuTilda_matrix: call_update: 4.859 [ms]
[OGL LOG][Proc: 0]nuTilda_rhs: call_update: 1.909 [ms]
[OGL LOG][Preconditioner.H:121] Generate preconditioner BJ MaxBlockSize 1
[OGL LOG][Proc: 0]nuTilda: init_precond: 0.5620000000000001 [ms]
[OGL LOG][StoppingCriterion.H:373] Creating stopping criterion with minIter 2 frequency 1
[OGL LOG][Proc: 0]nuTilda: generate_solver: 0.001 [ms]
[OGL LOG][Proc: 0]nuTilda: solve: 42.938 [ms]
[OGL LOG][Proc: 0]nuTilda: copy_x_back: 2.053 [ms]
[OGL LOG][lduLduBase.H:336] 
Statistics:
	Time per iteration: 21469 [mu s]
	Time per residual norm calculation: 322.000000 [mu s]
	Time per iteration and DOF: 1.701961 [ns]
	Retrieve results bandwidth 1.846000 [GByte/s]
[OGL LOG][Proc: 0]nuTilda: solve_multi_gpu: 53.346 [ms]
BJhipGKOBiCGStab:  Solving for nuTilda, Initial residual = 0.1099430096407513, Final residual = 0.009368749072825222, No Iterations 2
bounding nuTilda, min: -1.318663825612973e-05 max: 0.001021491951332911 average: 8.499350812146976e-05
[INFO] TimeStep: 2906.062 [ms]
ExecutionTime = 30.45 s  ClockTime = 31 s

Time = 5

velocityDampingConstraint velocityDamping damped 114 (0%) of cells, with max limit 300
[INFO] MatrixAssemblyU: 857.03 [ms]
[OGL LOG][Proc: 0]: global_index_init: 0.243 [ms]
[OGL LOG][Proc: 0]Ux_local_coeffs: call_update: 0 [ms]
[OGL LOG][Proc: 0]Ux_non_local_coeffs: call_update: 0 [ms]
[OGL LOG][Proc: 0]Ux: update_local_matrix_data: 19.655 [ms]
[OGL LOG][Proc: 0]Ux: update_non_local_matrix_data: 0.177 [ms]
[OGL LOG][Proc: 0]Ux_matrix: call_update: 4.59 [ms]
[OGL LOG][Proc: 0]Ux_rhs: call_update: 2.475 [ms]
[OGL LOG][Preconditioner.H:121] Generate preconditioner BJ MaxBlockSize 1
[OGL LOG][Proc: 0]Ux: init_precond: 0.5640000000000001 [ms]
[OGL LOG][StoppingCriterion.H:373] Creating stopping criterion with minIter 11 frequency 1
[OGL LOG][Proc: 0]Ux: generate_solver: 0.001 [ms]
[OGL LOG][Proc: 0]Ux: solve: 71.254 [ms]
[OGL LOG][Proc: 0]Ux: copy_x_back: 1.971 [ms]
[OGL LOG][lduLduBase.H:336] 
Statistics:
	Time per iteration: 6477 [mu s]
	Time per residual norm calculation: 324.000000 [mu s]
	Time per iteration and DOF: 0.513466 [ns]
	Retrieve results bandwidth 1.923000 [GByte/s]
[OGL LOG][Proc: 0]Ux: solve_multi_gpu: 81.916 [ms]
BJhipGKOBiCGStab:  Solving for Ux, Initial residual = 0.0610408678900056, Final residual = 0.005897756866611181, No Iterations 11
[OGL LOG][Proc: 0]: global_index_init: 0.304 [ms]
[OGL LOG][Proc: 0]Uy_local_coeffs: call_update: 0 [ms]
[OGL LOG][Proc: 0]Uy_non_local_coeffs: call_update: 0 [ms]
[OGL LOG][Proc: 0]Uy: update_local_matrix_data: 20.587 [ms]
[OGL LOG][Proc: 0]Uy: update_non_local_matrix_data: 0.092 [ms]
[OGL LOG][Proc: 0]Uy_matrix: call_update: 5.453 [ms]
[OGL LOG][Proc: 0]Uy_rhs: call_update: 3.87 [ms]
[OGL LOG][Preconditioner.H:121] Generate preconditioner BJ MaxBlockSize 1
[OGL LOG][Proc: 0]Uy: init_precond: 0.5680000000000001 [ms]
[OGL LOG][StoppingCriterion.H:373] Creating stopping criterion with minIter 14 frequency 1
[OGL LOG][Proc: 0]Uy: generate_solver: 0.001 [ms]
[OGL LOG][Proc: 0]Uy: solve: 74.843 [ms]
[OGL LOG][Proc: 0]Uy: copy_x_back: 2.029 [ms]
[OGL LOG][lduLduBase.H:336] 
Statistics:
	Time per iteration: 6236 [mu s]
	Time per residual norm calculation: 327.000000 [mu s]
	Time per iteration and DOF: 0.494361 [ns]
	Retrieve results bandwidth 1.868000 [GByte/s]
[OGL LOG][Proc: 0]Uy: solve_multi_gpu: 87.88200000000001 [ms]
BJhipGKOBiCGStab:  Solving for Uy, Initial residual = 0.134265887432947, Final residual = 0.01004470211833936, No Iterations 12
[OGL LOG][Proc: 0]: global_index_init: 5.724 [ms]
[OGL LOG][Proc: 0]Uz_local_coeffs: call_update: 0 [ms]
[OGL LOG][Proc: 0]Uz_non_local_coeffs: call_update: 0 [ms]
[OGL LOG][Proc: 0]Uz: update_local_matrix_data: 20.854 [ms]
[OGL LOG][Proc: 0]Uz: update_non_local_matrix_data: 0.08700000000000001 [ms]
[OGL LOG][Proc: 0]Uz_matrix: call_update: 4.969 [ms]
[OGL LOG][Proc: 0]Uz_rhs: call_update: 4.932 [ms]
[OGL LOG][Preconditioner.H:121] Generate preconditioner BJ MaxBlockSize 1
[OGL LOG][Proc: 0]Uz: init_precond: 0.635 [ms]
[OGL LOG][StoppingCriterion.H:373] Creating stopping criterion with minIter 18 frequency 1
[OGL LOG][Proc: 0]Uz: generate_solver: 0.001 [ms]
[OGL LOG][Proc: 0]Uz: solve: 75.095 [ms]
[OGL LOG][Proc: 0]Uz: copy_x_back: 2.051 [ms]
[OGL LOG][lduLduBase.H:336] 
Statistics:
	Time per iteration: 6826 [mu s]
	Time per residual norm calculation: 322.000000 [mu s]
	Time per iteration and DOF: 0.541133 [ns]
	Retrieve results bandwidth 1.848000 [GByte/s]
[OGL LOG][Proc: 0]Uz: solve_multi_gpu: 88.751 [ms]
BJhipGKOBiCGStab:  Solving for Uz, Initial residual = 0.1504352202290858, Final residual = 0.01456605235651696, No Iterations 11
[INFO] MomentumPredictor: 402.197 [ms]
[INFO] MatrixAssemblyPI: 157.305 [ms]
[INFO] MatrixAssemblyPII: 74.66500000000001 [ms]
GAMG:  Solving for p, Initial residual = 0.1066138195230209, Final residual = 0.0009833061879872373, No Iterations 9
[INFO] SolveP: 704.189 [ms]
time step continuity errors : sum local = 0.01004014168153251, global = -3.531225339031184e-05, cumulative = -0.0005550561023859052
[INFO] postSolveP: 39.11 [ms]
[OGL LOG][Proc: 0]: global_index_init: 1.281 [ms]
[OGL LOG][Proc: 0]nuTilda_local_coeffs: call_update: 0 [ms]
[OGL LOG][Proc: 0]nuTilda_non_local_coeffs: call_update: 0 [ms]
[OGL LOG][Proc: 0]nuTilda: update_local_matrix_data: 21.255 [ms]
[OGL LOG][Proc: 0]nuTilda: update_non_local_matrix_data: 0.105 [ms]
[OGL LOG][Proc: 0]nuTilda_matrix: call_update: 5.097 [ms]
[OGL LOG][Proc: 0]nuTilda_rhs: call_update: 0.8120000000000001 [ms]
[OGL LOG][Preconditioner.H:121] Generate preconditioner BJ MaxBlockSize 1
[OGL LOG][Proc: 0]nuTilda: init_precond: 0.553 [ms]
[OGL LOG][StoppingCriterion.H:373] Creating stopping criterion with minIter 2 frequency 1
[OGL LOG][Proc: 0]nuTilda: generate_solver: 0.001 [ms]
[OGL LOG][Proc: 0]nuTilda: solve: 45.591 [ms]
[OGL LOG][Proc: 0]nuTilda: copy_x_back: 2.025 [ms]
[OGL LOG][lduLduBase.H:336] 
Statistics:
	Time per iteration: 22795 [mu s]
	Time per residual norm calculation: 464.000000 [mu s]
	Time per iteration and DOF: 1.807080 [ns]
	Retrieve results bandwidth 1.871000 [GByte/s]
[OGL LOG][Proc: 0]nuTilda: solve_multi_gpu: 55.192 [ms]
BJhipGKOBiCGStab:  Solving for nuTilda, Initial residual = 0.06085900222176367, Final residual = 0.005902832378516149, No Iterations 2
bounding nuTilda, min: -2.817707894198978e-05 max: 0.00124871744263323 average: 8.910159882357452e-05
[INFO] TimeStep: 2813.72 [ms]
ExecutionTime = 33.92 s  ClockTime = 34 s

Time = 6

velocityDampingConstraint velocityDamping damped 0 (0%) of cells, with max limit 300
[INFO] MatrixAssemblyU: 859.394 [ms]
[OGL LOG][Proc: 0]: global_index_init: 0.376 [ms]
[OGL LOG][Proc: 0]Ux_local_coeffs: call_update: 0 [ms]
[OGL LOG][Proc: 0]Ux_non_local_coeffs: call_update: 0 [ms]
[OGL LOG][Proc: 0]Ux: update_local_matrix_data: 19.893 [ms]
[OGL LOG][Proc: 0]Ux: update_non_local_matrix_data: 0.093 [ms]
[OGL LOG][Proc: 0]Ux_matrix: call_update: 5.925 [ms]
[OGL LOG][Proc: 0]Ux_rhs: call_update: 5.283 [ms]
[OGL LOG][Preconditioner.H:121] Generate preconditioner BJ MaxBlockSize 1
[OGL LOG][Proc: 0]Ux: init_precond: 0.583 [ms]
[OGL LOG][StoppingCriterion.H:373] Creating stopping criterion with minIter 13 frequency 1
[OGL LOG][Proc: 0]Ux: generate_solver: 0.001 [ms]
[OGL LOG][Proc: 0]Ux: solve: 91.468 [ms]
[OGL LOG][Proc: 0]Ux: copy_x_back: 2.058 [ms]
[OGL LOG][lduLduBase.H:336] 
Statistics:
	Time per iteration: 7036 [mu s]
	Time per residual norm calculation: 319.000000 [mu s]
	Time per iteration and DOF: 0.557781 [ns]
	Retrieve results bandwidth 1.841000 [GByte/s]
[OGL LOG][Proc: 0]Ux: solve_multi_gpu: 106.429 [ms]
BJhipGKOBiCGStab:  Solving for Ux, Initial residual = 0.03814573497726778, Final residual = 0.002009986783470359, No Iterations 13
[OGL LOG][Proc: 0]: global_index_init: 0.452 [ms]
[OGL LOG][Proc: 0]Uy_local_coeffs: call_update: 0 [ms]
[OGL LOG][Proc: 0]Uy_non_local_coeffs: call_update: 0 [ms]
[OGL LOG][Proc: 0]Uy: update_local_matrix_data: 20.266 [ms]
[OGL LOG][Proc: 0]Uy: update_non_local_matrix_data: 0.095 [ms]
[OGL LOG][Proc: 0]Uy_matrix: call_update: 5.656 [ms]
[OGL LOG][Proc: 0]Uy_rhs: call_update: 1.182 [ms]
[OGL LOG][Preconditioner.H:121] Generate preconditioner BJ MaxBlockSize 1
[OGL LOG][Proc: 0]Uy: init_precond: 0.5660000000000001 [ms]
[OGL LOG][StoppingCriterion.H:373] Creating stopping criterion with minIter 14 frequency 1
[OGL LOG][Proc: 0]Uy: generate_solver: 0.001 [ms]
[OGL LOG][Proc: 0]Uy: solve: 70.542 [ms]
[OGL LOG][Proc: 0]Uy: copy_x_back: 2.045 [ms]
[OGL LOG][lduLduBase.H:336] 
Statistics:
	Time per iteration: 6412 [mu s]
	Time per residual norm calculation: 303.000000 [mu s]
	Time per iteration and DOF: 0.508313 [ns]
	Retrieve results bandwidth 1.853000 [GByte/s]
[OGL LOG][Proc: 0]Uy: solve_multi_gpu: 81.09100000000001 [ms]
BJhipGKOBiCGStab:  Solving for Uy, Initial residual = 0.1163082195714351, Final residual = 0.01111318734701051, No Iterations 11
[OGL LOG][Proc: 0]: global_index_init: 0.099 [ms]
[OGL LOG][Proc: 0]Uz_local_coeffs: call_update: 0 [ms]
[OGL LOG][Proc: 0]Uz_non_local_coeffs: call_update: 0 [ms]
[OGL LOG][Proc: 0]Uz: update_local_matrix_data: 20.227 [ms]
[OGL LOG][Proc: 0]Uz: update_non_local_matrix_data: 0.115 [ms]
[OGL LOG][Proc: 0]Uz_matrix: call_update: 5.118 [ms]
[OGL LOG][Proc: 0]Uz_rhs: call_update: 1.787 [ms]
[OGL LOG][Preconditioner.H:121] Generate preconditioner BJ MaxBlockSize 1
[OGL LOG][Proc: 0]Uz: init_precond: 0.624 [ms]
[OGL LOG][StoppingCriterion.H:373] Creating stopping criterion with minIter 13 frequency 1
[OGL LOG][Proc: 0]Uz: generate_solver: 0 [ms]
[OGL LOG][Proc: 0]Uz: solve: 67.548 [ms]
[OGL LOG][Proc: 0]Uz: copy_x_back: 2.042 [ms]
[OGL LOG][lduLduBase.H:336] 
Statistics:
	Time per iteration: 6754 [mu s]
	Time per residual norm calculation: 303.000000 [mu s]
	Time per iteration and DOF: 0.535425 [ns]
	Retrieve results bandwidth 1.856000 [GByte/s]
[OGL LOG][Proc: 0]Uz: solve_multi_gpu: 78.218 [ms]
BJhipGKOBiCGStab:  Solving for Uz, Initial residual = 0.107355048638805, Final residual = 0.01067646743137289, No Iterations 10
[INFO] MomentumPredictor: 405.162 [ms]
[INFO] MatrixAssemblyPI: 158.839 [ms]
[INFO] MatrixAssemblyPII: 75.203 [ms]
GAMG:  Solving for p, Initial residual = 0.09638143546973456, Final residual = 0.0008839661301755875, No Iterations 7
[INFO] SolveP: 544.823 [ms]
time step continuity errors : sum local = 0.008092339994751197, global = 4.310608312478217e-05, cumulative = -0.000511950019261123
[INFO] postSolveP: 41.179 [ms]
[OGL LOG][Proc: 0]: global_index_init: 0.655 [ms]
[OGL LOG][Proc: 0]nuTilda_local_coeffs: call_update: 0 [ms]
[OGL LOG][Proc: 0]nuTilda_non_local_coeffs: call_update: 0 [ms]
[OGL LOG][Proc: 0]nuTilda: update_local_matrix_data: 20.957 [ms]
[OGL LOG][Proc: 0]nuTilda: update_non_local_matrix_data: 0.096 [ms]
[OGL LOG][Proc: 0]nuTilda_matrix: call_update: 4.843 [ms]
[OGL LOG][Proc: 0]nuTilda_rhs: call_update: 2.496 [ms]
[OGL LOG][Preconditioner.H:121] Generate preconditioner BJ MaxBlockSize 1
[OGL LOG][Proc: 0]nuTilda: init_precond: 0.629 [ms]
[OGL LOG][StoppingCriterion.H:373] Creating stopping criterion with minIter 2 frequency 1
[OGL LOG][Proc: 0]nuTilda: generate_solver: 0.001 [ms]
[OGL LOG][Proc: 0]nuTilda: solve: 45.933 [ms]
[OGL LOG][Proc: 0]nuTilda: copy_x_back: 2.009 [ms]
[OGL LOG][lduLduBase.H:336] 
Statistics:
	Time per iteration: 22966 [mu s]
	Time per residual norm calculation: 362.000000 [mu s]
	Time per iteration and DOF: 1.820636 [ns]
	Retrieve results bandwidth 1.886000 [GByte/s]
[OGL LOG][Proc: 0]nuTilda: solve_multi_gpu: 57.001 [ms]
BJhipGKOBiCGStab:  Solving for nuTilda, Initial residual = 0.05568379594257761, Final residual = 0.003403788806083937, No Iterations 2
[INFO] TimeStep: 2634.78 [ms]
ExecutionTime = 37.2 s  ClockTime = 38 s

Time = 7

velocityDampingConstraint velocityDamping damped 4 (0%) of cells, with max limit 300
[INFO] MatrixAssemblyU: 851.274 [ms]
[OGL LOG][Proc: 0]: global_index_init: 0.215 [ms]
[OGL LOG][Proc: 0]Ux_local_coeffs: call_update: 0 [ms]
[OGL LOG][Proc: 0]Ux_non_local_coeffs: call_update: 0 [ms]
[OGL LOG][Proc: 0]Ux: update_local_matrix_data: 18.883 [ms]
[OGL LOG][Proc: 0]Ux: update_non_local_matrix_data: 0.097 [ms]
[OGL LOG][Proc: 0]Ux_matrix: call_update: 9.573 [ms]
[OGL LOG][Proc: 0]Ux_rhs: call_update: 1.485 [ms]
[OGL LOG][Preconditioner.H:121] Generate preconditioner BJ MaxBlockSize 1
[OGL LOG][Proc: 0]Ux: init_precond: 0.5690000000000001 [ms]
[OGL LOG][StoppingCriterion.H:373] Creating stopping criterion with minIter 15 frequency 1
[OGL LOG][Proc: 0]Ux: generate_solver: 0 [ms]
[OGL LOG][Proc: 0]Ux: solve: 69.017 [ms]
[OGL LOG][Proc: 0]Ux: copy_x_back: 2.013 [ms]
[OGL LOG][lduLduBase.H:336] 
Statistics:
	Time per iteration: 6901 [mu s]
	Time per residual norm calculation: 298.000000 [mu s]
	Time per iteration and DOF: 0.547079 [ns]
	Retrieve results bandwidth 1.882000 [GByte/s]
[OGL LOG][Proc: 0]Ux: solve_multi_gpu: 83.752 [ms]
BJhipGKOBiCGStab:  Solving for Ux, Initial residual = 0.02829640656967833, Final residual = 0.002572764771599488, No Iterations 10
[OGL LOG][Proc: 0]: global_index_init: 0.634 [ms]
[OGL LOG][Proc: 0]Uy_local_coeffs: call_update: 0 [ms]
[OGL LOG][Proc: 0]Uy_non_local_coeffs: call_update: 0 [ms]
[OGL LOG][Proc: 0]Uy: update_local_matrix_data: 19.345 [ms]
[OGL LOG][Proc: 0]Uy: update_non_local_matrix_data: 0.098 [ms]
[OGL LOG][Proc: 0]Uy_matrix: call_update: 9.831 [ms]
[OGL LOG][Proc: 0]Uy_rhs: call_update: 4.314 [ms]
[OGL LOG][Preconditioner.H:121] Generate preconditioner BJ MaxBlockSize 1
[OGL LOG][Proc: 0]Uy: init_precond: 0.636 [ms]
[OGL LOG][StoppingCriterion.H:373] Creating stopping criterion with minIter 13 frequency 1
[OGL LOG][Proc: 0]Uy: generate_solver: 0.001 [ms]
[OGL LOG][Proc: 0]Uy: solve: 73.73699999999999 [ms]
[OGL LOG][Proc: 0]Uy: copy_x_back: 2.064 [ms]
[OGL LOG][lduLduBase.H:336] 
Statistics:
	Time per iteration: 6703 [mu s]
	Time per residual norm calculation: 301.000000 [mu s]
	Time per iteration and DOF: 0.531382 [ns]
	Retrieve results bandwidth 1.836000 [GByte/s]
[OGL LOG][Proc: 0]Uy: solve_multi_gpu: 91.66 [ms]
BJhipGKOBiCGStab:  Solving for Uy, Initial residual = 0.0748457110495153, Final residual = 0.007193793992639602, No Iterations 11
[OGL LOG][Proc: 0]: global_index_init: 0.354 [ms]
[OGL LOG][Proc: 0]Uz_local_coeffs: call_update: 0 [ms]
[OGL LOG][Proc: 0]Uz_non_local_coeffs: call_update: 0 [ms]
[OGL LOG][Proc: 0]Uz: update_local_matrix_data: 18.715 [ms]
[OGL LOG][Proc: 0]Uz: update_non_local_matrix_data: 0.097 [ms]
[OGL LOG][Proc: 0]Uz_matrix: call_update: 8.689 [ms]
[OGL LOG][Proc: 0]Uz_rhs: call_update: 1.767 [ms]
[OGL LOG][Preconditioner.H:121] Generate preconditioner BJ MaxBlockSize 1
[OGL LOG][Proc: 0]Uz: init_precond: 0.503 [ms]
[OGL LOG][StoppingCriterion.H:373] Creating stopping criterion with minIter 12 frequency 1
[OGL LOG][Proc: 0]Uz: generate_solver: 0.001 [ms]
[OGL LOG][Proc: 0]Uz: solve: 73.002 [ms]
[OGL LOG][Proc: 0]Uz: copy_x_back: 2.033 [ms]
[OGL LOG][lduLduBase.H:336] 
Statistics:
	Time per iteration: 6636 [mu s]
	Time per residual norm calculation: 322.000000 [mu s]
	Time per iteration and DOF: 0.526071 [ns]
	Retrieve results bandwidth 1.864000 [GByte/s]
[OGL LOG][Proc: 0]Uz: solve_multi_gpu: 87.084 [ms]
BJhipGKOBiCGStab:  Solving for Uz, Initial residual = 0.07301563351299999, Final residual = 0.006266524771608741, No Iterations 11
[INFO] MomentumPredictor: 397.299 [ms]
[INFO] MatrixAssemblyPI: 156.546 [ms]
[INFO] MatrixAssemblyPII: 75.503 [ms]
GAMG:  Solving for p, Initial residual = 0.08545393990511217, Final residual = 0.0006750496120698082, No Iterations 7
[INFO] SolveP: 540.932 [ms]
time step continuity errors : sum local = 0.00593680770745245, global = 6.98008459689725e-05, cumulative = -0.0004421491732921505
[INFO] postSolveP: 39.205 [ms]
[OGL LOG][Proc: 0]: global_index_init: 0.244 [ms]
[OGL LOG][Proc: 0]nuTilda_local_coeffs: call_update: 0 [ms]
[OGL LOG][Proc: 0]nuTilda_non_local_coeffs: call_update: 0 [ms]
[OGL LOG][Proc: 0]nuTilda: update_local_matrix_data: 21.655 [ms]
[OGL LOG][Proc: 0]nuTilda: update_non_local_matrix_data: 0.127 [ms]
[OGL LOG][Proc: 0]nuTilda_matrix: call_update: 6.27 [ms]
[OGL LOG][Proc: 0]nuTilda_rhs: call_update: 4.661 [ms]
[OGL LOG][Preconditioner.H:121] Generate preconditioner BJ MaxBlockSize 1
[OGL LOG][Proc: 0]nuTilda: init_precond: 0.617 [ms]
[OGL LOG][StoppingCriterion.H:373] Creating stopping criterion with minIter 3 frequency 1
[OGL LOG][Proc: 0]nuTilda: generate_solver: 0.001 [ms]
[OGL LOG][Proc: 0]nuTilda: solve: 42.526 [ms]
[OGL LOG][Proc: 0]nuTilda: copy_x_back: 2.019 [ms]
[OGL LOG][lduLduBase.H:336] 
Statistics:
	Time per iteration: 21263 [mu s]
	Time per residual norm calculation: 328.000000 [mu s]
	Time per iteration and DOF: 1.685630 [ns]
	Retrieve results bandwidth 1.877000 [GByte/s]
[OGL LOG][Proc: 0]nuTilda: solve_multi_gpu: 57.188 [ms]
BJhipGKOBiCGStab:  Solving for nuTilda, Initial residual = 0.04659059444168782, Final residual = 0.00464820551265676, No Iterations 2
[INFO] TimeStep: 2607.764 [ms]
ExecutionTime = 40.45 s  ClockTime = 41 s

Time = 8

velocityDampingConstraint velocityDamping damped 0 (0%) of cells, with max limit 300
[INFO] MatrixAssemblyU: 845.3920000000001 [ms]
[OGL LOG][Proc: 0]: global_index_init: 0.223 [ms]
[OGL LOG][Proc: 0]Ux_local_coeffs: call_update: 0 [ms]
[OGL LOG][Proc: 0]Ux_non_local_coeffs: call_update: 0 [ms]
[OGL LOG][Proc: 0]Ux: update_local_matrix_data: 21.731 [ms]
[OGL LOG][Proc: 0]Ux: update_non_local_matrix_data: 0.08700000000000001 [ms]
[OGL LOG][Proc: 0]Ux_matrix: call_update: 4.709000000000001 [ms]
[OGL LOG][Proc: 0]Ux_rhs: call_update: 1.114 [ms]
[OGL LOG][Preconditioner.H:121] Generate preconditioner BJ MaxBlockSize 1
[OGL LOG][Proc: 0]Ux: init_precond: 0.5590000000000001 [ms]
[OGL LOG][StoppingCriterion.H:373] Creating stopping criterion with minIter 12 frequency 1
[OGL LOG][Proc: 0]Ux: generate_solver: 0.001 [ms]
[OGL LOG][Proc: 0]Ux: solve: 69.14100000000001 [ms]
[OGL LOG][Proc: 0]Ux: copy_x_back: 1.898 [ms]
[OGL LOG][lduLduBase.H:336] 
Statistics:
	Time per iteration: 6914 [mu s]
	Time per residual norm calculation: 312.000000 [mu s]
	Time per iteration and DOF: 0.548109 [ns]
	Retrieve results bandwidth 1.997000 [GByte/s]
[OGL LOG][Proc: 0]Ux: solve_multi_gpu: 78.444 [ms]
BJhipGKOBiCGStab:  Solving for Ux, Initial residual = 0.02074616685311741, Final residual = 0.001960348300875075, No Iterations 10
[OGL LOG][Proc: 0]: global_index_init: 0.193 [ms]
[OGL LOG][Proc: 0]Uy_local_coeffs: call_update: 0 [ms]
[OGL LOG][Proc: 0]Uy_non_local_coeffs: call_update: 0 [ms]
[OGL LOG][Proc: 0]Uy: update_local_matrix_data: 22.313 [ms]
[OGL LOG][Proc: 0]Uy: update_non_local_matrix_data: 0.103 [ms]
[OGL LOG][Proc: 0]Uy_matrix: call_update: 3.919 [ms]
[OGL LOG][Proc: 0]Uy_rhs: call_update: 1.704 [ms]
[OGL LOG][Preconditioner.H:121] Generate preconditioner BJ MaxBlockSize 1
[OGL LOG][Proc: 0]Uy: init_precond: 0.63 [ms]
[OGL LOG][StoppingCriterion.H:373] Creating stopping criterion with minIter 13 frequency 1
[OGL LOG][Proc: 0]Uy: generate_solver: 0.001 [ms]
[OGL LOG][Proc: 0]Uy: solve: 79.649 [ms]
[OGL LOG][Proc: 0]Uy: copy_x_back: 2.016 [ms]
[OGL LOG][lduLduBase.H:336] 
Statistics:
	Time per iteration: 7964 [mu s]
	Time per residual norm calculation: 298.000000 [mu s]
	Time per iteration and DOF: 0.631348 [ns]
	Retrieve results bandwidth 1.880000 [GByte/s]
[OGL LOG][Proc: 0]Uy: solve_multi_gpu: 89.032 [ms]
BJhipGKOBiCGStab:  Solving for Uy, Initial residual = 0.05636957178390378, Final residual = 0.005510249924393569, No Iterations 10
[OGL LOG][Proc: 0]: global_index_init: 0.135 [ms]
[OGL LOG][Proc: 0]Uz_local_coeffs: call_update: 0 [ms]
[OGL LOG][Proc: 0]Uz_non_local_coeffs: call_update: 0 [ms]
[OGL LOG][Proc: 0]Uz: update_local_matrix_data: 23.727 [ms]
[OGL LOG][Proc: 0]Uz: update_non_local_matrix_data: 0.093 [ms]
[OGL LOG][Proc: 0]Uz_matrix: call_update: 4.128 [ms]
[OGL LOG][Proc: 0]Uz_rhs: call_update: 0.669 [ms]
[OGL LOG][Preconditioner.H:121] Generate preconditioner BJ MaxBlockSize 1
[OGL LOG][Proc: 0]Uz: init_precond: 0.544 [ms]
[OGL LOG][StoppingCriterion.H:373] Creating stopping criterion with minIter 13 frequency 1
[OGL LOG][Proc: 0]Uz: generate_solver: 0.001 [ms]
[OGL LOG][Proc: 0]Uz: solve: 74.066 [ms]
[OGL LOG][Proc: 0]Uz: copy_x_back: 2.04 [ms]
[OGL LOG][lduLduBase.H:336] 
Statistics:
	Time per iteration: 6733 [mu s]
	Time per residual norm calculation: 321.000000 [mu s]
	Time per iteration and DOF: 0.533760 [ns]
	Retrieve results bandwidth 1.858000 [GByte/s]
[OGL LOG][Proc: 0]Uz: solve_multi_gpu: 82.538 [ms]
BJhipGKOBiCGStab:  Solving for Uz, Initial residual = 0.05899440029775024, Final residual = 0.005016476603650042, No Iterations 11
[INFO] MomentumPredictor: 395.378 [ms]
[INFO] MatrixAssemblyPI: 158.742 [ms]
[INFO] MatrixAssemblyPII: 75.58 [ms]
GAMG:  Solving for p, Initial residual = 0.07380664221917094, Final residual = 0.0006347121808238188, No Iterations 6
[INFO] SolveP: 479.9 [ms]
time step continuity errors : sum local = 0.005687032661976933, global = -2.140389624565711e-05, cumulative = -0.0004635530695378076
[INFO] postSolveP: 39.256 [ms]
[OGL LOG][Proc: 0]: global_index_init: 1.964 [ms]
[OGL LOG][Proc: 0]nuTilda_local_coeffs: call_update: 0 [ms]
[OGL LOG][Proc: 0]nuTilda_non_local_coeffs: call_update: 0 [ms]
[OGL LOG][Proc: 0]nuTilda: update_local_matrix_data: 20.276 [ms]
[OGL LOG][Proc: 0]nuTilda: update_non_local_matrix_data: 0.095 [ms]
[OGL LOG][Proc: 0]nuTilda_matrix: call_update: 7.42 [ms]
[OGL LOG][Proc: 0]nuTilda_rhs: call_update: 1.971 [ms]
[OGL LOG][Preconditioner.H:121] Generate preconditioner BJ MaxBlockSize 1
[OGL LOG][Proc: 0]nuTilda: init_precond: 0.554 [ms]
[OGL LOG][StoppingCriterion.H:373] Creating stopping criterion with minIter 2 frequency 1
[OGL LOG][Proc: 0]nuTilda: generate_solver: 0.001 [ms]
[OGL LOG][Proc: 0]nuTilda: solve: 44.127 [ms]
[OGL LOG][Proc: 0]nuTilda: copy_x_back: 2.136 [ms]
[OGL LOG][lduLduBase.H:336] 
Statistics:
	Time per iteration: 22063 [mu s]
	Time per residual norm calculation: 302.000000 [mu s]
	Time per iteration and DOF: 1.749051 [ns]
	Retrieve results bandwidth 1.774000 [GByte/s]
[OGL LOG][Proc: 0]nuTilda: solve_multi_gpu: 57.226 [ms]
BJhipGKOBiCGStab:  Solving for nuTilda, Initial residual = 0.05250567677809274, Final residual = 0.002811856414419909, No Iterations 2
[INFO] TimeStep: 2538.036 [ms]
ExecutionTime = 43.62 s  ClockTime = 44 s

Time = 9

velocityDampingConstraint velocityDamping damped 0 (0%) of cells, with max limit 300
[INFO] MatrixAssemblyU: 842.58 [ms]
[OGL LOG][Proc: 0]: global_index_init: 0.167 [ms]
[OGL LOG][Proc: 0]Ux_local_coeffs: call_update: 0 [ms]
[OGL LOG][Proc: 0]Ux_non_local_coeffs: call_update: 0 [ms]
[OGL LOG][Proc: 0]Ux: update_local_matrix_data: 19.749 [ms]
[OGL LOG][Proc: 0]Ux: update_non_local_matrix_data: 0.08500000000000001 [ms]
[OGL LOG][Proc: 0]Ux_matrix: call_update: 5.258 [ms]
[OGL LOG][Proc: 0]Ux_rhs: call_update: 1.939 [ms]
[OGL LOG][Preconditioner.H:121] Generate preconditioner BJ MaxBlockSize 1
[OGL LOG][Proc: 0]Ux: init_precond: 0.641 [ms]
[OGL LOG][StoppingCriterion.H:373] Creating stopping criterion with minIter 12 frequency 1
[OGL LOG][Proc: 0]Ux: generate_solver: 0.001 [ms]
[OGL LOG][Proc: 0]Ux: solve: 67.197 [ms]
[OGL LOG][Proc: 0]Ux: copy_x_back: 2.041 [ms]
[OGL LOG][lduLduBase.H:336] 
Statistics:
	Time per iteration: 5599 [mu s]
	Time per residual norm calculation: 371.000000 [mu s]
	Time per iteration and DOF: 0.443862 [ns]
	Retrieve results bandwidth 1.857000 [GByte/s]
[OGL LOG][Proc: 0]Ux: solve_multi_gpu: 78.2 [ms]
BJhipGKOBiCGStab:  Solving for Ux, Initial residual = 0.01748347218291123, Final residual = 0.001209736414350672, No Iterations 12
[OGL LOG][Proc: 0]: global_index_init: 0.122 [ms]
[OGL LOG][Proc: 0]Uy_local_coeffs: call_update: 0 [ms]
[OGL LOG][Proc: 0]Uy_non_local_coeffs: call_update: 0 [ms]
[OGL LOG][Proc: 0]Uy: update_local_matrix_data: 20.411 [ms]
[OGL LOG][Proc: 0]Uy: update_non_local_matrix_data: 0.08799999999999999 [ms]
[OGL LOG][Proc: 0]Uy_matrix: call_update: 4.609 [ms]
[OGL LOG][Proc: 0]Uy_rhs: call_update: 4.676 [ms]
[OGL LOG][Preconditioner.H:121] Generate preconditioner BJ MaxBlockSize 1
[OGL LOG][Proc: 0]Uy: init_precond: 0.5730000000000001 [ms]
[OGL LOG][StoppingCriterion.H:373] Creating stopping criterion with minIter 12 frequency 1
[OGL LOG][Proc: 0]Uy: generate_solver: 0.001 [ms]
[OGL LOG][Proc: 0]Uy: solve: 79.087 [ms]
[OGL LOG][Proc: 0]Uy: copy_x_back: 2.027 [ms]
[OGL LOG][lduLduBase.H:336] 
Statistics:
	Time per iteration: 6590 [mu s]
	Time per residual norm calculation: 335.000000 [mu s]
	Time per iteration and DOF: 0.522424 [ns]
	Retrieve results bandwidth 1.869000 [GByte/s]
[OGL LOG][Proc: 0]Uy: solve_multi_gpu: 92.07300000000001 [ms]
BJhipGKOBiCGStab:  Solving for Uy, Initial residual = 0.0473618453938477, Final residual = 0.003180037498710296, No Iterations 12
[OGL LOG][Proc: 0]: global_index_init: 0.196 [ms]
[OGL LOG][Proc: 0]Uz_local_coeffs: call_update: 0 [ms]
[OGL LOG][Proc: 0]Uz_non_local_coeffs: call_update: 0 [ms]
[OGL LOG][Proc: 0]Uz: update_local_matrix_data: 20.539 [ms]
[OGL LOG][Proc: 0]Uz: update_non_local_matrix_data: 0.093 [ms]
[OGL LOG][Proc: 0]Uz_matrix: call_update: 5.146 [ms]
[OGL LOG][Proc: 0]Uz_rhs: call_update: 1.43 [ms]
[OGL LOG][Preconditioner.H:121] Generate preconditioner BJ MaxBlockSize 1
[OGL LOG][Proc: 0]Uz: init_precond: 0.5680000000000001 [ms]
[OGL LOG][StoppingCriterion.H:373] Creating stopping criterion with minIter 13 frequency 1
[OGL LOG][Proc: 0]Uz: generate_solver: 0.001 [ms]
[OGL LOG][Proc: 0]Uz: solve: 70.291 [ms]
[OGL LOG][Proc: 0]Uz: copy_x_back: 2.019 [ms]
[OGL LOG][lduLduBase.H:336] 
Statistics:
	Time per iteration: 6390 [mu s]
	Time per residual norm calculation: 300.000000 [mu s]
	Time per iteration and DOF: 0.506569 [ns]
	Retrieve results bandwidth 1.877000 [GByte/s]
[OGL LOG][Proc: 0]Uz: solve_multi_gpu: 80.526 [ms]
BJhipGKOBiCGStab:  Solving for Uz, Initial residual = 0.04824249841587769, Final residual = 0.004183555371945345, No Iterations 11
[INFO] MomentumPredictor: 388.139 [ms]
[INFO] MatrixAssemblyPI: 157.954 [ms]
[INFO] MatrixAssemblyPII: 75.661 [ms]
GAMG:  Solving for p, Initial residual = 0.08371374212086885, Final residual = 0.0005859275671702311, No Iterations 6
[INFO] SolveP: 466.883 [ms]
time step continuity errors : sum local = 0.005282065524921388, global = -3.028636181073752e-05, cumulative = -0.0004938394313485451
[INFO] postSolveP: 38.228 [ms]
[OGL LOG][Proc: 0]: global_index_init: 0.347 [ms]
[OGL LOG][Proc: 0]nuTilda_local_coeffs: call_update: 0 [ms]
[OGL LOG][Proc: 0]nuTilda_non_local_coeffs: call_update: 0 [ms]
[OGL LOG][Proc: 0]nuTilda: update_local_matrix_data: 21.055 [ms]
[OGL LOG][Proc: 0]nuTilda: update_non_local_matrix_data: 0.08500000000000001 [ms]
[OGL LOG][Proc: 0]nuTilda_matrix: call_update: 5.139 [ms]
[OGL LOG][Proc: 0]nuTilda_rhs: call_update: 6.29 [ms]
[OGL LOG][Preconditioner.H:121] Generate preconditioner BJ MaxBlockSize 1
[OGL LOG][Proc: 0]nuTilda: init_precond: 0.585 [ms]
[OGL LOG][StoppingCriterion.H:373] Creating stopping criterion with minIter 3 frequency 1
[OGL LOG][Proc: 0]nuTilda: generate_solver: 0.001 [ms]
[OGL LOG][Proc: 0]nuTilda: solve: 44.16 [ms]
[OGL LOG][Proc: 0]nuTilda: copy_x_back: 2.036 [ms]
[OGL LOG][lduLduBase.H:336] 
Statistics:
	Time per iteration: 22080 [mu s]
	Time per residual norm calculation: 303.000000 [mu s]
	Time per iteration and DOF: 1.750398 [ns]
	Retrieve results bandwidth 1.861000 [GByte/s]
[OGL LOG][Proc: 0]nuTilda: solve_multi_gpu: 59.518 [ms]
BJhipGKOBiCGStab:  Solving for nuTilda, Initial residual = 0.04108354824019265, Final residual = 0.002000096614179925, No Iterations 2
[INFO] TimeStep: 2518.003 [ms]
ExecutionTime = 46.78 s  ClockTime = 47 s

Time = 10

velocityDampingConstraint velocityDamping damped 0 (0%) of cells, with max limit 300
[INFO] MatrixAssemblyU: 848.728 [ms]
[OGL LOG][Proc: 0]: global_index_init: 0.229 [ms]
[OGL LOG][Proc: 0]Ux_local_coeffs: call_update: 0 [ms]
[OGL LOG][Proc: 0]Ux_non_local_coeffs: call_update: 0 [ms]
[OGL LOG][Proc: 0]Ux: update_local_matrix_data: 20.59 [ms]
[OGL LOG][Proc: 0]Ux: update_non_local_matrix_data: 0.08799999999999999 [ms]
[OGL LOG][Proc: 0]Ux_matrix: call_update: 5.465 [ms]
[OGL LOG][Proc: 0]Ux_rhs: call_update: 1.04 [ms]
[OGL LOG][Preconditioner.H:121] Generate preconditioner BJ MaxBlockSize 1
[OGL LOG][Proc: 0]Ux: init_precond: 0.5750000000000001 [ms]
[OGL LOG][StoppingCriterion.H:373] Creating stopping criterion with minIter 14 frequency 1
[OGL LOG][Proc: 0]Ux: generate_solver: 0.001 [ms]
[OGL LOG][Proc: 0]Ux: solve: 76.369 [ms]
[OGL LOG][Proc: 0]Ux: copy_x_back: 2.118 [ms]
[OGL LOG][lduLduBase.H:336] 
Statistics:
	Time per iteration: 5454 [mu s]
	Time per residual norm calculation: 338.000000 [mu s]
	Time per iteration and DOF: 0.432367 [ns]
	Retrieve results bandwidth 1.789000 [GByte/s]
[OGL LOG][Proc: 0]Ux: solve_multi_gpu: 86.658 [ms]
BJhipGKOBiCGStab:  Solving for Ux, Initial residual = 0.03157617246587295, Final residual = 0.002096033060387556, No Iterations 14
[OGL LOG][Proc: 0]: global_index_init: 0.17 [ms]
[OGL LOG][Proc: 0]Uy_local_coeffs: call_update: 0 [ms]
[OGL LOG][Proc: 0]Uy_non_local_coeffs: call_update: 0 [ms]
[OGL LOG][Proc: 0]Uy: update_local_matrix_data: 20.614 [ms]
[OGL LOG][Proc: 0]Uy: update_non_local_matrix_data: 0.097 [ms]
[OGL LOG][Proc: 0]Uy_matrix: call_update: 5.615 [ms]
[OGL LOG][Proc: 0]Uy_rhs: call_update: 0.923 [ms]
[OGL LOG][Preconditioner.H:121] Generate preconditioner BJ MaxBlockSize 1
[OGL LOG][Proc: 0]Uy: init_precond: 0.552 [ms]
[OGL LOG][StoppingCriterion.H:373] Creating stopping criterion with minIter 14 frequency 1
[OGL LOG][Proc: 0]Uy: generate_solver: 0.001 [ms]
[OGL LOG][Proc: 0]Uy: solve: 73.72800000000001 [ms]
[OGL LOG][Proc: 0]Uy: copy_x_back: 1.982 [ms]
[OGL LOG][lduLduBase.H:336] 
Statistics:
	Time per iteration: 5671 [mu s]
	Time per residual norm calculation: 323.000000 [mu s]
	Time per iteration and DOF: 0.449570 [ns]
	Retrieve results bandwidth 1.912000 [GByte/s]
[OGL LOG][Proc: 0]Uy: solve_multi_gpu: 83.876 [ms]
BJhipGKOBiCGStab:  Solving for Uy, Initial residual = 0.04910780840065258, Final residual = 0.003094558434123952, No Iterations 13
[OGL LOG][Proc: 0]: global_index_init: 0.176 [ms]
[OGL LOG][Proc: 0]Uz_local_coeffs: call_update: 0 [ms]
[OGL LOG][Proc: 0]Uz_non_local_coeffs: call_update: 0 [ms]
[OGL LOG][Proc: 0]Uz: update_local_matrix_data: 20.716 [ms]
[OGL LOG][Proc: 0]Uz: update_non_local_matrix_data: 0.093 [ms]
[OGL LOG][Proc: 0]Uz_matrix: call_update: 5.227 [ms]
[OGL LOG][Proc: 0]Uz_rhs: call_update: 1.302 [ms]
[OGL LOG][Preconditioner.H:121] Generate preconditioner BJ MaxBlockSize 1
[OGL LOG][Proc: 0]Uz: init_precond: 0.5660000000000001 [ms]
[OGL LOG][StoppingCriterion.H:373] Creating stopping criterion with minIter 13 frequency 1
[OGL LOG][Proc: 0]Uz: generate_solver: 0.001 [ms]
[OGL LOG][Proc: 0]Uz: solve: 81.486 [ms]
[OGL LOG][Proc: 0]Uz: copy_x_back: 2.024 [ms]
[OGL LOG][lduLduBase.H:336] 
Statistics:
	Time per iteration: 7407 [mu s]
	Time per residual norm calculation: 305.000000 [mu s]
	Time per iteration and DOF: 0.587192 [ns]
	Retrieve results bandwidth 1.872000 [GByte/s]
[OGL LOG][Proc: 0]Uz: solve_multi_gpu: 91.697 [ms]
BJhipGKOBiCGStab:  Solving for Uz, Initial residual = 0.04976455463093964, Final residual = 0.004509822112949288, No Iterations 11
[INFO] MomentumPredictor: 400.646 [ms]
[INFO] MatrixAssemblyPI: 157.467 [ms]
[INFO] MatrixAssemblyPII: 76.53 [ms]
GAMG:  Solving for p, Initial residual = 0.06680967724305986, Final residual = 0.000638108131206472, No Iterations 5
[INFO] SolveP: 396.745 [ms]
time step continuity errors : sum local = 0.00569938626858271, global = -9.699669754915764e-05, cumulative = -0.0005908361288977028
[INFO] postSolveP: 38.429 [ms]
[OGL LOG][Proc: 0]: global_index_init: 2.713 [ms]
[OGL LOG][Proc: 0]nuTilda_local_coeffs: call_update: 0 [ms]
[OGL LOG][Proc: 0]nuTilda_non_local_coeffs: call_update: 0 [ms]
[OGL LOG][Proc: 0]nuTilda: update_local_matrix_data: 21.781 [ms]
[OGL LOG][Proc: 0]nuTilda: update_non_local_matrix_data: 0.103 [ms]
[OGL LOG][Proc: 0]nuTilda_matrix: call_update: 8.673 [ms]
[OGL LOG][Proc: 0]nuTilda_rhs: call_update: 0.652 [ms]
[OGL LOG][Preconditioner.H:121] Generate preconditioner BJ MaxBlockSize 1
[OGL LOG][Proc: 0]nuTilda: init_precond: 0.499 [ms]
[OGL LOG][StoppingCriterion.H:373] Creating stopping criterion with minIter 3 frequency 1
[OGL LOG][Proc: 0]nuTilda: generate_solver: 0.002 [ms]
[OGL LOG][Proc: 0]nuTilda: solve: 41.639 [ms]
[OGL LOG][Proc: 0]nuTilda: copy_x_back: 2.002 [ms]
[OGL LOG][lduLduBase.H:336] 
Statistics:
	Time per iteration: 20819 [mu s]
	Time per residual norm calculation: 325.000000 [mu s]
	Time per iteration and DOF: 1.650432 [ns]
	Retrieve results bandwidth 1.893000 [GByte/s]
[OGL LOG][Proc: 0]nuTilda: solve_multi_gpu: 54.569 [ms]
BJhipGKOBiCGStab:  Solving for nuTilda, Initial residual = 0.05749546593201749, Final residual = 0.005386852800400865, No Iterations 2
[INFO] TimeStep: 2465.764 [ms]
ExecutionTime = 49.9 s  ClockTime = 51 s

Time = 11

velocityDampingConstraint velocityDamping damped 0 (0%) of cells, with max limit 300
[INFO] MatrixAssemblyU: 849.989 [ms]
[OGL LOG][Proc: 0]: global_index_init: 0.204 [ms]
[OGL LOG][Proc: 0]Ux_local_coeffs: call_update: 0 [ms]
[OGL LOG][Proc: 0]Ux_non_local_coeffs: call_update: 0 [ms]
[OGL LOG][Proc: 0]Ux: update_local_matrix_data: 19.982 [ms]
[OGL LOG][Proc: 0]Ux: update_non_local_matrix_data: 0.095 [ms]
[OGL LOG][Proc: 0]Ux_matrix: call_update: 5.689 [ms]
[OGL LOG][Proc: 0]Ux_rhs: call_update: 1.854 [ms]
[OGL LOG][Preconditioner.H:121] Generate preconditioner BJ MaxBlockSize 1
[OGL LOG][Proc: 0]Ux: init_precond: 0.618 [ms]
[OGL LOG][StoppingCriterion.H:373] Creating stopping criterion with minIter 16 frequency 1
[OGL LOG][Proc: 0]Ux: generate_solver: 0.001 [ms]
[OGL LOG][Proc: 0]Ux: solve: 84.899 [ms]
[OGL LOG][Proc: 0]Ux: copy_x_back: 1.955 [ms]
[OGL LOG][lduLduBase.H:336] 
Statistics:
	Time per iteration: 7074 [mu s]
	Time per residual norm calculation: 319.000000 [mu s]
	Time per iteration and DOF: 0.560793 [ns]
	Retrieve results bandwidth 1.938000 [GByte/s]
[OGL LOG][Proc: 0]Ux: solve_multi_gpu: 96.075 [ms]
BJhipGKOBiCGStab:  Solving for Ux, Initial residual = 0.02042490037746705, Final residual = 0.00198477574806124, No Iterations 12
[OGL LOG][Proc: 0]: global_index_init: 0.331 [ms]
[OGL LOG][Proc: 0]Uy_local_coeffs: call_update: 0 [ms]
[OGL LOG][Proc: 0]Uy_non_local_coeffs: call_update: 0 [ms]
[OGL LOG][Proc: 0]Uy: update_local_matrix_data: 20.322 [ms]
[OGL LOG][Proc: 0]Uy: update_non_local_matrix_data: 0.08500000000000001 [ms]
[OGL LOG][Proc: 0]Uy_matrix: call_update: 7.693000000000001 [ms]
[OGL LOG][Proc: 0]Uy_rhs: call_update: 1.2 [ms]
[OGL LOG][Preconditioner.H:121] Generate preconditioner BJ MaxBlockSize 1
[OGL LOG][Proc: 0]Uy: init_precond: 0.5640000000000001 [ms]
[OGL LOG][StoppingCriterion.H:373] Creating stopping criterion with minIter 15 frequency 1
[OGL LOG][Proc: 0]Uy: generate_solver: 0.001 [ms]
[OGL LOG][Proc: 0]Uy: solve: 69.982 [ms]
[OGL LOG][Proc: 0]Uy: copy_x_back: 2.431 [ms]
[OGL LOG][lduLduBase.H:336] 
Statistics:
	Time per iteration: 6362 [mu s]
	Time per residual norm calculation: 306.000000 [mu s]
	Time per iteration and DOF: 0.504349 [ns]
	Retrieve results bandwidth 1.559000 [GByte/s]
[OGL LOG][Proc: 0]Uy: solve_multi_gpu: 82.97800000000001 [ms]
BJhipGKOBiCGStab:  Solving for Uy, Initial residual = 0.04615507720692619, Final residual = 0.00418945217487591, No Iterations 11
[OGL LOG][Proc: 0]: global_index_init: 0.234 [ms]
[OGL LOG][Proc: 0]Uz_local_coeffs: call_update: 0 [ms]
[OGL LOG][Proc: 0]Uz_non_local_coeffs: call_update: 0 [ms]
[OGL LOG][Proc: 0]Uz: update_local_matrix_data: 20.535 [ms]
[OGL LOG][Proc: 0]Uz: update_non_local_matrix_data: 0.089 [ms]
[OGL LOG][Proc: 0]Uz_matrix: call_update: 8.398 [ms]
[OGL LOG][Proc: 0]Uz_rhs: call_update: 5.033 [ms]
[OGL LOG][Preconditioner.H:121] Generate preconditioner BJ MaxBlockSize 1
[OGL LOG][Proc: 0]Uz: init_precond: 0.628 [ms]
[OGL LOG][StoppingCriterion.H:373] Creating stopping criterion with minIter 13 frequency 1
[OGL LOG][Proc: 0]Uz: generate_solver: 0.001 [ms]
[OGL LOG][Proc: 0]Uz: solve: 73.444 [ms]
[OGL LOG][Proc: 0]Uz: copy_x_back: 2.048 [ms]
[OGL LOG][lduLduBase.H:336] 
Statistics:
	Time per iteration: 6676 [mu s]
	Time per residual norm calculation: 320.000000 [mu s]
	Time per iteration and DOF: 0.529242 [ns]
	Retrieve results bandwidth 1.850000 [GByte/s]
[OGL LOG][Proc: 0]Uz: solve_multi_gpu: 90.629 [ms]
BJhipGKOBiCGStab:  Solving for Uz, Initial residual = 0.04537976524108651, Final residual = 0.00443679855471076, No Iterations 11
[INFO] MomentumPredictor: 408.921 [ms]
[INFO] MatrixAssemblyPI: 157.795 [ms]
[INFO] MatrixAssemblyPII: 75.193 [ms]
GAMG:  Solving for p, Initial residual = 0.05882196651706028, Final residual = 0.0004065891807090361, No Iterations 6
[INFO] SolveP: 469.081 [ms]
time step continuity errors : sum local = 0.003570798256382691, global = -5.528365896565176e-06, cumulative = -0.000596364494794268
[INFO] postSolveP: 39.837 [ms]
[OGL LOG][Proc: 0]: global_index_init: 0.044 [ms]
[OGL LOG][Proc: 0]nuTilda_local_coeffs: call_update: 0 [ms]
[OGL LOG][Proc: 0]nuTilda_non_local_coeffs: call_update: 0 [ms]
[OGL LOG][Proc: 0]nuTilda: update_local_matrix_data: 20.234 [ms]
[OGL LOG][Proc: 0]nuTilda: update_non_local_matrix_data: 0.148 [ms]
[OGL LOG][Proc: 0]nuTilda_matrix: call_update: 4.942 [ms]
[OGL LOG][Proc: 0]nuTilda_rhs: call_update: 1.454 [ms]
[OGL LOG][Preconditioner.H:121] Generate preconditioner BJ MaxBlockSize 1
[OGL LOG][Proc: 0]nuTilda: init_precond: 0.547 [ms]
[OGL LOG][StoppingCriterion.H:373] Creating stopping criterion with minIter 2 frequency 1
[OGL LOG][Proc: 0]nuTilda: generate_solver: 0.001 [ms]
[OGL LOG][Proc: 0]nuTilda: solve: 49.112 [ms]
[OGL LOG][Proc: 0]nuTilda: copy_x_back: 2.07 [ms]
[OGL LOG][lduLduBase.H:336] 
Statistics:
	Time per iteration: 24556 [mu s]
	Time per residual norm calculation: 309.000000 [mu s]
	Time per iteration and DOF: 1.946684 [ns]
	Retrieve results bandwidth 1.831000 [GByte/s]
[OGL LOG][Proc: 0]nuTilda: solve_multi_gpu: 59.274 [ms]
BJhipGKOBiCGStab:  Solving for nuTilda, Initial residual = 0.03689787654217901, Final residual = 0.001852377679664015, No Iterations 2
[INFO] TimeStep: 2549.095 [ms]
ExecutionTime = 53.09 s  ClockTime = 54 s

Time = 12

velocityDampingConstraint velocityDamping damped 0 (0%) of cells, with max limit 300
[INFO] MatrixAssemblyU: 845.913 [ms]
[OGL LOG][Proc: 0]: global_index_init: 0.235 [ms]
[OGL LOG][Proc: 0]Ux_local_coeffs: call_update: 0 [ms]
[OGL LOG][Proc: 0]Ux_non_local_coeffs: call_update: 0 [ms]
[OGL LOG][Proc: 0]Ux: update_local_matrix_data: 19.655 [ms]
[OGL LOG][Proc: 0]Ux: update_non_local_matrix_data: 0.12 [ms]
[OGL LOG][Proc: 0]Ux_matrix: call_update: 4.791 [ms]
[OGL LOG][Proc: 0]Ux_rhs: call_update: 2.006 [ms]
[OGL LOG][Preconditioner.H:121] Generate preconditioner BJ MaxBlockSize 1
[OGL LOG][Proc: 0]Ux: init_precond: 0.5670000000000001 [ms]
[OGL LOG][StoppingCriterion.H:373] Creating stopping criterion with minIter 14 frequency 1
[OGL LOG][Proc: 0]Ux: generate_solver: 0.001 [ms]
[OGL LOG][Proc: 0]Ux: solve: 74.093 [ms]
[OGL LOG][Proc: 0]Ux: copy_x_back: 1.923 [ms]
[OGL LOG][lduLduBase.H:336] 
Statistics:
	Time per iteration: 7409 [mu s]
	Time per residual norm calculation: 322.000000 [mu s]
	Time per iteration and DOF: 0.587351 [ns]
	Retrieve results bandwidth 1.971000 [GByte/s]
[OGL LOG][Proc: 0]Ux: solve_multi_gpu: 84.455 [ms]
BJhipGKOBiCGStab:  Solving for Ux, Initial residual = 0.01500507267797265, Final residual = 0.001405168499839874, No Iterations 10
[OGL LOG][Proc: 0]: global_index_init: 0.178 [ms]
[OGL LOG][Proc: 0]Uy_local_coeffs: call_update: 0 [ms]
[OGL LOG][Proc: 0]Uy_non_local_coeffs: call_update: 0 [ms]
[OGL LOG][Proc: 0]Uy: update_local_matrix_data: 19.39 [ms]
[OGL LOG][Proc: 0]Uy: update_non_local_matrix_data: 0.093 [ms]
[OGL LOG][Proc: 0]Uy_matrix: call_update: 4.289 [ms]
[OGL LOG][Proc: 0]Uy_rhs: call_update: 3.489 [ms]
[OGL LOG][Preconditioner.H:121] Generate preconditioner BJ MaxBlockSize 1
[OGL LOG][Proc: 0]Uy: init_precond: 0.5640000000000001 [ms]
[OGL LOG][StoppingCriterion.H:373] Creating stopping criterion with minIter 13 frequency 1
[OGL LOG][Proc: 0]Uy: generate_solver: 0.001 [ms]
[OGL LOG][Proc: 0]Uy: solve: 75.991 [ms]
[OGL LOG][Proc: 0]Uy: copy_x_back: 2.019 [ms]
[OGL LOG][lduLduBase.H:336] 
Statistics:
	Time per iteration: 7599 [mu s]
	Time per residual norm calculation: 300.000000 [mu s]
	Time per iteration and DOF: 0.602413 [ns]
	Retrieve results bandwidth 1.877000 [GByte/s]
[OGL LOG][Proc: 0]Uy: solve_multi_gpu: 87.437 [ms]
BJhipGKOBiCGStab:  Solving for Uy, Initial residual = 0.04248092990215468, Final residual = 0.004052864558657239, No Iterations 10
[OGL LOG][Proc: 0]: global_index_init: 0.218 [ms]
[OGL LOG][Proc: 0]Uz_local_coeffs: call_update: 0 [ms]
[OGL LOG][Proc: 0]Uz_non_local_coeffs: call_update: 0 [ms]
[OGL LOG][Proc: 0]Uz: update_local_matrix_data: 19.181 [ms]
[OGL LOG][Proc: 0]Uz: update_non_local_matrix_data: 0.096 [ms]
[OGL LOG][Proc: 0]Uz_matrix: call_update: 8.291 [ms]
[OGL LOG][Proc: 0]Uz_rhs: call_update: 2.056 [ms]
[OGL LOG][Preconditioner.H:121] Generate preconditioner BJ MaxBlockSize 1
[OGL LOG][Proc: 0]Uz: init_precond: 0.556 [ms]
[OGL LOG][StoppingCriterion.H:373] Creating stopping criterion with minIter 13 frequency 1
[OGL LOG][Proc: 0]Uz: generate_solver: 0.001 [ms]
[OGL LOG][Proc: 0]Uz: solve: 70.876 [ms]
[OGL LOG][Proc: 0]Uz: copy_x_back: 2.016 [ms]
[OGL LOG][lduLduBase.H:336] 
Statistics:
	Time per iteration: 5906 [mu s]
	Time per residual norm calculation: 321.000000 [mu s]
	Time per iteration and DOF: 0.468200 [ns]
	Retrieve results bandwidth 1.880000 [GByte/s]
[OGL LOG][Proc: 0]Uz: solve_multi_gpu: 84.864 [ms]
BJhipGKOBiCGStab:  Solving for Uz, Initial residual = 0.04208275889301708, Final residual = 0.003293454959257621, No Iterations 12
[INFO] MomentumPredictor: 392.345 [ms]
[INFO] MatrixAssemblyPI: 158.92 [ms]
[INFO] MatrixAssemblyPII: 75.511 [ms]
GAMG:  Solving for p, Initial residual = 0.05510908741702123, Final residual = 0.0005457341848061617, No Iterations 5
[INFO] SolveP: 401.374 [ms]
time step continuity errors : sum local = 0.004727290475623608, global = 8.799006296513489e-05, cumulative = -0.0005083744318291331
[INFO] postSolveP: 39.81 [ms]
[OGL LOG][Proc: 0]: global_index_init: 0.9550000000000001 [ms]
[OGL LOG][Proc: 0]nuTilda_local_coeffs: call_update: 0 [ms]
[OGL LOG][Proc: 0]nuTilda_non_local_coeffs: call_update: 0 [ms]
[OGL LOG][Proc: 0]nuTilda: update_local_matrix_data: 20.579 [ms]
[OGL LOG][Proc: 0]nuTilda: update_non_local_matrix_data: 0.301 [ms]
[OGL LOG][Proc: 0]nuTilda_matrix: call_update: 5.24 [ms]
[OGL LOG][Proc: 0]nuTilda_rhs: call_update: 2.544 [ms]
[OGL LOG][Preconditioner.H:121] Generate preconditioner BJ MaxBlockSize 1
[OGL LOG][Proc: 0]nuTilda: init_precond: 0.624 [ms]
[OGL LOG][StoppingCriterion.H:373] Creating stopping criterion with minIter 3 frequency 1
[OGL LOG][Proc: 0]nuTilda: generate_solver: 0.001 [ms]
[OGL LOG][Proc: 0]nuTilda: solve: 46.849 [ms]
[OGL LOG][Proc: 0]nuTilda: copy_x_back: 2.023 [ms]
[OGL LOG][lduLduBase.H:336] 
Statistics:
	Time per iteration: 23424 [mu s]
	Time per residual norm calculation: 332.000000 [mu s]
	Time per iteration and DOF: 1.856944 [ns]
	Retrieve results bandwidth 1.873000 [GByte/s]
[OGL LOG][Proc: 0]nuTilda: solve_multi_gpu: 58.358 [ms]
[...]
[OGL LOG][Proc: 0]Uy_rhs: call_update: 0.761 [ms]
[OGL LOG][Preconditioner.H:121] Generate preconditioner BJ MaxBlockSize 1
[OGL LOG][Proc: 0]Uy: init_precond: 0.55 [ms]
[OGL LOG][StoppingCriterion.H:373] Creating stopping criterion with minIter 19 frequency 1
[OGL LOG][Proc: 0]Uy: generate_solver: 0 [ms]
[OGL LOG][Proc: 0]Uy: solve: 77.77 [ms]
[OGL LOG][Proc: 0]Uy: copy_x_back: 1.928 [ms]
[OGL LOG][lduLduBase.H:336] 
Statistics:
	Time per iteration: 5555 [mu s]
	Time per residual norm calculation: 325.000000 [mu s]
	Time per iteration and DOF: 0.440374 [ns]
	Retrieve results bandwidth 1.966000 [GByte/s]
[OGL LOG][Proc: 0]Uy: solve_multi_gpu: 91.812 [ms]
BJhipGKOBiCGStab:  Solving for Uy, Initial residual = 0.06429698636897696, Final residual = 0.004369228091066325, No Iterations 14
[OGL LOG][Proc: 0]: global_index_init: 0.068 [ms]
[OGL LOG][Proc: 0]Uz_local_coeffs: call_update: 0 [ms]
[OGL LOG][Proc: 0]Uz_non_local_coeffs: call_update: 0 [ms]
[OGL LOG][Proc: 0]Uz: update_local_matrix_data: 20.296 [ms]
[OGL LOG][Proc: 0]Uz: update_non_local_matrix_data: 0.098 [ms]
[OGL LOG][Proc: 0]Uz_matrix: call_update: 4.886 [ms]
[OGL LOG][Proc: 0]Uz_rhs: call_update: 2.928 [ms]
[OGL LOG][Preconditioner.H:121] Generate preconditioner BJ MaxBlockSize 1
[OGL LOG][Proc: 0]Uz: init_precond: 0.642 [ms]
[OGL LOG][StoppingCriterion.H:373] Creating stopping criterion with minIter 13 frequency 1
[OGL LOG][Proc: 0]Uz: generate_solver: 0.001 [ms]
[OGL LOG][Proc: 0]Uz: solve: 75.82600000000001 [ms]
[OGL LOG][Proc: 0]Uz: copy_x_back: 2.033 [ms]
[OGL LOG][lduLduBase.H:336] 
Statistics:
	Time per iteration: 6318 [mu s]
	Time per residual norm calculation: 298.000000 [mu s]
	Time per iteration and DOF: 0.500861 [ns]
	Retrieve results bandwidth 1.864000 [GByte/s]
[OGL LOG][Proc: 0]Uz: solve_multi_gpu: 87.449 [ms]
BJhipGKOBiCGStab:  Solving for Uz, Initial residual = 0.07643577315263202, Final residual = 0.007591089407554416, No Iterations 12
[INFO] MomentumPredictor: 406.306 [ms]
[INFO] MatrixAssemblyPI: 156.549 [ms]
[INFO] MatrixAssemblyPII: 75.13200000000001 [ms]
GAMG:  Solving for p, Initial residual = 0.0594030679754744, Final residual = 0.0005157339589119636, No Iterations 5
[INFO] SolveP: 401.475 [ms]
time step continuity errors : sum local = 0.005281346732210698, global = 3.397922107357479e-05, cumulative = 0.000308285940196205
[INFO] postSolveP: 38.68 [ms]
[OGL LOG][Proc: 0]: global_index_init: 1.216 [ms]
[OGL LOG][Proc: 0]nuTilda_local_coeffs: call_update: 0 [ms]
[OGL LOG][Proc: 0]nuTilda_non_local_coeffs: call_update: 0 [ms]
[OGL LOG][Proc: 0]nuTilda: update_local_matrix_data: 21.047 [ms]
[OGL LOG][Proc: 0]nuTilda: update_non_local_matrix_data: 0.094 [ms]
[OGL LOG][Proc: 0]nuTilda_matrix: call_update: 4.645 [ms]
[OGL LOG][Proc: 0]nuTilda_rhs: call_update: 2.155 [ms]
[OGL LOG][Preconditioner.H:121] Generate preconditioner BJ MaxBlockSize 1
[OGL LOG][Proc: 0]nuTilda: init_precond: 0.629 [ms]
[OGL LOG][StoppingCriterion.H:373] Creating stopping criterion with minIter 2 frequency 1
[OGL LOG][Proc: 0]nuTilda: generate_solver: 0.001 [ms]
[OGL LOG][Proc: 0]nuTilda: solve: 42.716 [ms]
[OGL LOG][Proc: 0]nuTilda: copy_x_back: 2.051 [ms]
[OGL LOG][lduLduBase.H:336] 
Statistics:
	Time per iteration: 21358 [mu s]
	Time per residual norm calculation: 303.000000 [mu s]
	Time per iteration and DOF: 1.693162 [ns]
	Retrieve results bandwidth 1.848000 [GByte/s]
[OGL LOG][Proc: 0]nuTilda: solve_multi_gpu: 53.279 [ms]
BJhipGKOBiCGStab:  Solving for nuTilda, Initial residual = 0.01203847642091581, Final residual = 0.0009237596233361608, No Iterations 2
bounding nuTilda, min: -0.0003486674277579802 max: 0.006896399991954506 average: 0.0003372250495665561
[INFO] TimeStep: 2475.474 [ms]
ExecutionTime = 165.35 s  ClockTime = 167 s

Time = 48

velocityDampingConstraint velocityDamping damped 0 (0%) of cells, with max limit 300
[INFO] MatrixAssemblyU: 832.737 [ms]
[OGL LOG][Proc: 0]: global_index_init: 0.243 [ms]
[OGL LOG][Proc: 0]Ux_local_coeffs: call_update: 0 [ms]
[OGL LOG][Proc: 0]Ux_non_local_coeffs: call_update: 0 [ms]
[OGL LOG][Proc: 0]Ux: update_local_matrix_data: 19.55 [ms]
[OGL LOG][Proc: 0]Ux: update_non_local_matrix_data: 0.08700000000000001 [ms]
[OGL LOG][Proc: 0]Ux_matrix: call_update: 5.431 [ms]
[OGL LOG][Proc: 0]Ux_rhs: call_update: 3.48 [ms]
[OGL LOG][Preconditioner.H:121] Generate preconditioner BJ MaxBlockSize 1
[OGL LOG][Proc: 0]Ux: init_precond: 0.5580000000000001 [ms]
[OGL LOG][StoppingCriterion.H:373] Creating stopping criterion with minIter 13 frequency 1
[OGL LOG][Proc: 0]Ux: generate_solver: 0.001 [ms]
[OGL LOG][Proc: 0]Ux: solve: 71.964 [ms]
[OGL LOG][Proc: 0]Ux: copy_x_back: 1.984 [ms]
[OGL LOG][lduLduBase.H:336] 
Statistics:
	Time per iteration: 6542 [mu s]
	Time per residual norm calculation: 309.000000 [mu s]
	Time per iteration and DOF: 0.518619 [ns]
	Retrieve results bandwidth 1.910000 [GByte/s]
[OGL LOG][Proc: 0]Ux: solve_multi_gpu: 84.49299999999999 [ms]
BJhipGKOBiCGStab:  Solving for Ux, Initial residual = 0.01253890699461802, Final residual = 0.001119729482519233, No Iterations 11
[OGL LOG][Proc: 0]: global_index_init: 0.286 [ms]
[OGL LOG][Proc: 0]Uy_local_coeffs: call_update: 0 [ms]
[OGL LOG][Proc: 0]Uy_non_local_coeffs: call_update: 0 [ms]
[OGL LOG][Proc: 0]Uy: update_local_matrix_data: 19.431 [ms]
[OGL LOG][Proc: 0]Uy: update_non_local_matrix_data: 0.089 [ms]
[OGL LOG][Proc: 0]Uy_matrix: call_update: 5.087 [ms]
[OGL LOG][Proc: 0]Uy_rhs: call_update: 3.62 [ms]
[OGL LOG][Preconditioner.H:121] Generate preconditioner BJ MaxBlockSize 1
[OGL LOG][Proc: 0]Uy: init_precond: 0.627 [ms]
[OGL LOG][StoppingCriterion.H:373] Creating stopping criterion with minIter 16 frequency 1
[OGL LOG][Proc: 0]Uy: generate_solver: 0.001 [ms]
[OGL LOG][Proc: 0]Uy: solve: 64.479 [ms]
[OGL LOG][Proc: 0]Uy: copy_x_back: 2.022 [ms]
[OGL LOG][lduLduBase.H:336] 
Statistics:
	Time per iteration: 5861 [mu s]
	Time per residual norm calculation: 328.000000 [mu s]
	Time per iteration and DOF: 0.464632 [ns]
	Retrieve results bandwidth 1.874000 [GByte/s]
[OGL LOG][Proc: 0]Uy: solve_multi_gpu: 77.008 [ms]
BJhipGKOBiCGStab:  Solving for Uy, Initial residual = 0.07508416636044274, Final residual = 0.007379492037787715, No Iterations 11
[OGL LOG][Proc: 0]: global_index_init: 0.233 [ms]
[OGL LOG][Proc: 0]Uz_local_coeffs: call_update: 0 [ms]
[OGL LOG][Proc: 0]Uz_non_local_coeffs: call_update: 0 [ms]
[OGL LOG][Proc: 0]Uz: update_local_matrix_data: 19.652 [ms]
[OGL LOG][Proc: 0]Uz: update_non_local_matrix_data: 0.08700000000000001 [ms]
[OGL LOG][Proc: 0]Uz_matrix: call_update: 7.063 [ms]
[OGL LOG][Proc: 0]Uz_rhs: call_update: 2.153 [ms]
[OGL LOG][Preconditioner.H:121] Generate preconditioner BJ MaxBlockSize 1
[OGL LOG][Proc: 0]Uz: init_precond: 0.5630000000000001 [ms]
[OGL LOG][StoppingCriterion.H:373] Creating stopping criterion with minIter 15 frequency 1
[OGL LOG][Proc: 0]Uz: generate_solver: 0.001 [ms]
[OGL LOG][Proc: 0]Uz: solve: 73.315 [ms]
[OGL LOG][Proc: 0]Uz: copy_x_back: 2.001 [ms]
[OGL LOG][lduLduBase.H:336] 
Statistics:
	Time per iteration: 6665 [mu s]
	Time per residual norm calculation: 301.000000 [mu s]
	Time per iteration and DOF: 0.528370 [ns]
	Retrieve results bandwidth 1.894000 [GByte/s]
[OGL LOG][Proc: 0]Uz: solve_multi_gpu: 86.17 [ms]
BJhipGKOBiCGStab:  Solving for Uz, Initial residual = 0.07059323278084267, Final residual = 0.006693939057149644, No Iterations 11
[INFO] MomentumPredictor: 383.169 [ms]
[INFO] MatrixAssemblyPI: 157.385 [ms]
[INFO] MatrixAssemblyPII: 76.012 [ms]
GAMG:  Solving for p, Initial residual = 0.05429898026772909, Final residual = 0.0004693984581469376, No Iterations 5
[INFO] SolveP: 400.925 [ms]
time step continuity errors : sum local = 0.00474139541200996, global = 4.851725702789128e-05, cumulative = 0.0003568031972240963
[INFO] postSolveP: 38.391 [ms]
[OGL LOG][Proc: 0]: global_index_init: 1.423 [ms]
[OGL LOG][Proc: 0]nuTilda_local_coeffs: call_update: 0 [ms]
[OGL LOG][Proc: 0]nuTilda_non_local_coeffs: call_update: 0 [ms]
[OGL LOG][Proc: 0]nuTilda: update_local_matrix_data: 21.569 [ms]
[OGL LOG][Proc: 0]nuTilda: update_non_local_matrix_data: 0.092 [ms]
[OGL LOG][Proc: 0]nuTilda_matrix: call_update: 4.167 [ms]
[OGL LOG][Proc: 0]nuTilda_rhs: call_update: 2.042 [ms]
[OGL LOG][Preconditioner.H:121] Generate preconditioner BJ MaxBlockSize 1
[OGL LOG][Proc: 0]nuTilda: init_precond: 0.629 [ms]
[OGL LOG][StoppingCriterion.H:373] Creating stopping criterion with minIter 3 frequency 1
[OGL LOG][Proc: 0]nuTilda: generate_solver: 0.001 [ms]
[OGL LOG][Proc: 0]nuTilda: solve: 46.916 [ms]
[OGL LOG][Proc: 0]nuTilda: copy_x_back: 1.994 [ms]
[OGL LOG][lduLduBase.H:336] 
Statistics:
	Time per iteration: 23458 [mu s]
	Time per residual norm calculation: 304.000000 [mu s]
	Time per iteration and DOF: 1.859640 [ns]
	Retrieve results bandwidth 1.900000 [GByte/s]
[OGL LOG][Proc: 0]nuTilda: solve_multi_gpu: 57.026 [ms]
BJhipGKOBiCGStab:  Solving for nuTilda, Initial residual = 0.01571734679551184, Final residual = 0.0009888106718060883, No Iterations 2
bounding nuTilda, min: -0.0001266094463903206 max: 0.006954896666669585 average: 0.0003460505542043452
[INFO] TimeStep: 2459.469 [ms]
ExecutionTime = 168.43 s  ClockTime = 170 s

Time = 49

velocityDampingConstraint velocityDamping damped 0 (0%) of cells, with max limit 300
[INFO] MatrixAssemblyU: 827.79 [ms]
[OGL LOG][Proc: 0]: global_index_init: 1.206 [ms]
[OGL LOG][Proc: 0]Ux_local_coeffs: call_update: 0 [ms]
[OGL LOG][Proc: 0]Ux_non_local_coeffs: call_update: 0 [ms]
[OGL LOG][Proc: 0]Ux: update_local_matrix_data: 20.693 [ms]
[OGL LOG][Proc: 0]Ux: update_non_local_matrix_data: 0.08799999999999999 [ms]
[OGL LOG][Proc: 0]Ux_matrix: call_update: 5.197 [ms]
[OGL LOG][Proc: 0]Ux_rhs: call_update: 4.004 [ms]
[OGL LOG][Preconditioner.H:121] Generate preconditioner BJ MaxBlockSize 1
[OGL LOG][Proc: 0]Ux: init_precond: 0.622 [ms]
[OGL LOG][StoppingCriterion.H:373] Creating stopping criterion with minIter 13 frequency 1
[OGL LOG][Proc: 0]Ux: generate_solver: 0.001 [ms]
[OGL LOG][Proc: 0]Ux: solve: 69.119 [ms]
[OGL LOG][Proc: 0]Ux: copy_x_back: 2.019 [ms]
[OGL LOG][lduLduBase.H:336] 
Statistics:
	Time per iteration: 6911 [mu s]
	Time per residual norm calculation: 381.000000 [mu s]
	Time per iteration and DOF: 0.547871 [ns]
	Retrieve results bandwidth 1.877000 [GByte/s]
[OGL LOG][Proc: 0]Ux: solve_multi_gpu: 81.994 [ms]
BJhipGKOBiCGStab:  Solving for Ux, Initial residual = 0.01187715006172567, Final residual = 0.0009881353920503106, No Iterations 10
[OGL LOG][Proc: 0]: global_index_init: 0.185 [ms]
[OGL LOG][Proc: 0]Uy_local_coeffs: call_update: 0 [ms]
[OGL LOG][Proc: 0]Uy_non_local_coeffs: call_update: 0 [ms]
[OGL LOG][Proc: 0]Uy: update_local_matrix_data: 20.917 [ms]
[OGL LOG][Proc: 0]Uy: update_non_local_matrix_data: 0.09 [ms]
[OGL LOG][Proc: 0]Uy_matrix: call_update: 6.434 [ms]
[OGL LOG][Proc: 0]Uy_rhs: call_update: 2.194 [ms]
[OGL LOG][Preconditioner.H:121] Generate preconditioner BJ MaxBlockSize 1
[OGL LOG][Proc: 0]Uy: init_precond: 0.5590000000000001 [ms]
[OGL LOG][StoppingCriterion.H:373] Creating stopping criterion with minIter 13 frequency 1
[OGL LOG][Proc: 0]Uy: generate_solver: 0.001 [ms]
[OGL LOG][Proc: 0]Uy: solve: 81.238 [ms]
[OGL LOG][Proc: 0]Uy: copy_x_back: 1.984 [ms]
[OGL LOG][lduLduBase.H:336] 
Statistics:
	Time per iteration: 8123 [mu s]
	Time per residual norm calculation: 302.000000 [mu s]
	Time per iteration and DOF: 0.643953 [ns]
	Retrieve results bandwidth 1.910000 [GByte/s]
[OGL LOG][Proc: 0]Uy: solve_multi_gpu: 93.538 [ms]
BJhipGKOBiCGStab:  Solving for Uy, Initial residual = 0.06383304136529745, Final residual = 0.006284454799688434, No Iterations 10
[OGL LOG][Proc: 0]: global_index_init: 0.215 [ms]
[OGL LOG][Proc: 0]Uz_local_coeffs: call_update: 0 [ms]
[OGL LOG][Proc: 0]Uz_non_local_coeffs: call_update: 0 [ms]
[OGL LOG][Proc: 0]Uz: update_local_matrix_data: 20.815 [ms]
[OGL LOG][Proc: 0]Uz: update_non_local_matrix_data: 0.09 [ms]
[OGL LOG][Proc: 0]Uz_matrix: call_update: 4.65 [ms]
[OGL LOG][Proc: 0]Uz_rhs: call_update: 1.865 [ms]
[OGL LOG][Preconditioner.H:121] Generate preconditioner BJ MaxBlockSize 1
[OGL LOG][Proc: 0]Uz: init_precond: 0.626 [ms]
[OGL LOG][StoppingCriterion.H:373] Creating stopping criterion with minIter 13 frequency 1
[OGL LOG][Proc: 0]Uz: generate_solver: 0.001 [ms]
[OGL LOG][Proc: 0]Uz: solve: 89.621 [ms]
[OGL LOG][Proc: 0]Uz: copy_x_back: 2.034 [ms]
[OGL LOG][lduLduBase.H:336] 
Statistics:
	Time per iteration: 5974 [mu s]
	Time per residual norm calculation: 318.000000 [mu s]
	Time per iteration and DOF: 0.473591 [ns]
	Retrieve results bandwidth 1.863000 [GByte/s]
[OGL LOG][Proc: 0]Uz: solve_multi_gpu: 100.079 [ms]
BJhipGKOBiCGStab:  Solving for Uz, Initial residual = 0.06783338087422659, Final residual = 0.003673564545864956, No Iterations 15
[INFO] MomentumPredictor: 419.72 [ms]
[INFO] MatrixAssemblyPI: 157.537 [ms]
[INFO] MatrixAssemblyPII: 75.654 [ms]
GAMG:  Solving for p, Initial residual = 0.05330564599438367, Final residual = 0.0004530542268345189, No Iterations 5
[INFO] SolveP: 406.252 [ms]
time step continuity errors : sum local = 0.00451518973386746, global = 3.928154531425362e-05, cumulative = 0.0003960847425383499
[INFO] postSolveP: 40.087 [ms]
[OGL LOG][Proc: 0]: global_index_init: 0.6 [ms]
[OGL LOG][Proc: 0]nuTilda_local_coeffs: call_update: 0.001 [ms]
[OGL LOG][Proc: 0]nuTilda_non_local_coeffs: call_update: 0 [ms]
[OGL LOG][Proc: 0]nuTilda: update_local_matrix_data: 21.261 [ms]
[OGL LOG][Proc: 0]nuTilda: update_non_local_matrix_data: 0.097 [ms]
[OGL LOG][Proc: 0]nuTilda_matrix: call_update: 5.121 [ms]
[OGL LOG][Proc: 0]nuTilda_rhs: call_update: 1.236 [ms]
[OGL LOG][Preconditioner.H:121] Generate preconditioner BJ MaxBlockSize 1
[OGL LOG][Proc: 0]nuTilda: init_precond: 0.543 [ms]
[OGL LOG][StoppingCriterion.H:373] Creating stopping criterion with minIter 3 frequency 1
[OGL LOG][Proc: 0]nuTilda: generate_solver: 0.001 [ms]
[OGL LOG][Proc: 0]nuTilda: solve: 47.542 [ms]
[OGL LOG][Proc: 0]nuTilda: copy_x_back: 2.017 [ms]
[OGL LOG][lduLduBase.H:336] 
Statistics:
	Time per iteration: 23771 [mu s]
	Time per residual norm calculation: 304.000000 [mu s]
	Time per iteration and DOF: 1.884453 [ns]
	Retrieve results bandwidth 1.879000 [GByte/s]
[OGL LOG][Proc: 0]nuTilda: solve_multi_gpu: 57.463 [ms]
BJhipGKOBiCGStab:  Solving for nuTilda, Initial residual = 0.0114141319214597, Final residual = 0.0007664210469165736, No Iterations 2
bounding nuTilda, min: -9.697328879583347e-05 max: 0.007010444881717701 average: 0.0003558302813488791
[INFO] TimeStep: 2496.44 [ms]
ExecutionTime = 171.56 s  ClockTime = 173 s

Time = 50

velocityDampingConstraint velocityDamping damped 0 (0%) of cells, with max limit 300
[INFO] MatrixAssemblyU: 829.09 [ms]
[OGL LOG][Proc: 0]: global_index_init: 0.173 [ms]
[OGL LOG][Proc: 0]Ux_local_coeffs: call_update: 0 [ms]
[OGL LOG][Proc: 0]Ux_non_local_coeffs: call_update: 0 [ms]
[OGL LOG][Proc: 0]Ux: update_local_matrix_data: 20.352 [ms]
[OGL LOG][Proc: 0]Ux: update_non_local_matrix_data: 0.093 [ms]
[OGL LOG][Proc: 0]Ux_matrix: call_update: 5.19 [ms]
[OGL LOG][Proc: 0]Ux_rhs: call_update: 1.978 [ms]
[OGL LOG][Preconditioner.H:121] Generate preconditioner BJ MaxBlockSize 1
[OGL LOG][Proc: 0]Ux: init_precond: 0.618 [ms]
[OGL LOG][StoppingCriterion.H:373] Creating stopping criterion with minIter 12 frequency 1
[OGL LOG][Proc: 0]Ux: generate_solver: 0.001 [ms]
[OGL LOG][Proc: 0]Ux: solve: 70.932 [ms]
[OGL LOG][Proc: 0]Ux: copy_x_back: 1.919 [ms]
[OGL LOG][lduLduBase.H:336] 
Statistics:
	Time per iteration: 6448 [mu s]
	Time per residual norm calculation: 332.000000 [mu s]
	Time per iteration and DOF: 0.511167 [ns]
	Retrieve results bandwidth 1.975000 [GByte/s]
[OGL LOG][Proc: 0]Ux: solve_multi_gpu: 81.726 [ms]
BJhipGKOBiCGStab:  Solving for Ux, Initial residual = 0.01177910493602708, Final residual = 0.0009457965156148664, No Iterations 11
[OGL LOG][Proc: 0]: global_index_init: 0.091 [ms]
[OGL LOG][Proc: 0]Uy_local_coeffs: call_update: 0 [ms]
[OGL LOG][Proc: 0]Uy_non_local_coeffs: call_update: 0 [ms]
[OGL LOG][Proc: 0]Uy: update_local_matrix_data: 20.161 [ms]
[OGL LOG][Proc: 0]Uy: update_non_local_matrix_data: 0.094 [ms]
[OGL LOG][Proc: 0]Uy_matrix: call_update: 4.814 [ms]
[OGL LOG][Proc: 0]Uy_rhs: call_update: 3.372 [ms]
[OGL LOG][Preconditioner.H:121] Generate preconditioner BJ MaxBlockSize 1
[OGL LOG][Proc: 0]Uy: init_precond: 0.552 [ms]
[OGL LOG][StoppingCriterion.H:373] Creating stopping criterion with minIter 12 frequency 1
[OGL LOG][Proc: 0]Uy: generate_solver: 0 [ms]
[OGL LOG][Proc: 0]Uy: solve: 85.514 [ms]
[OGL LOG][Proc: 0]Uy: copy_x_back: 1.943 [ms]
[OGL LOG][lduLduBase.H:336] 
Statistics:
	Time per iteration: 5030 [mu s]
	Time per residual norm calculation: 328.000000 [mu s]
	Time per iteration and DOF: 0.398755 [ns]
	Retrieve results bandwidth 1.950000 [GByte/s]
[OGL LOG][Proc: 0]Uy: solve_multi_gpu: 97.27 [ms]
BJhipGKOBiCGStab:  Solving for Uy, Initial residual = 0.05938868776780851, Final residual = 0.001305580668185885, No Iterations 17
[OGL LOG][Proc: 0]: global_index_init: 2.836 [ms]
[OGL LOG][Proc: 0]Uz_local_coeffs: call_update: 0 [ms]
[OGL LOG][Proc: 0]Uz_non_local_coeffs: call_update: 0 [ms]
[OGL LOG][Proc: 0]Uz: update_local_matrix_data: 20 [ms]
[OGL LOG][Proc: 0]Uz: update_non_local_matrix_data: 0.095 [ms]
[OGL LOG][Proc: 0]Uz_matrix: call_update: 5.642 [ms]
[OGL LOG][Proc: 0]Uz_rhs: call_update: 1.208 [ms]
[OGL LOG][Preconditioner.H:121] Generate preconditioner BJ MaxBlockSize 1
[OGL LOG][Proc: 0]Uz: init_precond: 0.5700000000000001 [ms]
[OGL LOG][StoppingCriterion.H:373] Creating stopping criterion with minIter 18 frequency 1
[OGL LOG][Proc: 0]Uz: generate_solver: 0.001 [ms]
[OGL LOG][Proc: 0]Uz: solve: 76.17100000000001 [ms]
[OGL LOG][Proc: 0]Uz: copy_x_back: 2.015 [ms]
[OGL LOG][lduLduBase.H:336] 
Statistics:
	Time per iteration: 6347 [mu s]
	Time per residual norm calculation: 303.000000 [mu s]
	Time per iteration and DOF: 0.503160 [ns]
	Retrieve results bandwidth 1.881000 [GByte/s]
[OGL LOG][Proc: 0]Uz: solve_multi_gpu: 86.67 [ms]
BJhipGKOBiCGStab:  Solving for Uz, Initial residual = 0.07285859023785637, Final residual = 0.007170840298827135, No Iterations 12
[INFO] MomentumPredictor: 406.649 [ms]
[INFO] MatrixAssemblyPI: 158 [ms]
[INFO] MatrixAssemblyPII: 75.64400000000001 [ms]
GAMG:  Solving for p, Initial residual = 0.05223557522954866, Final residual = 0.0005061440694243779, No Iterations 5
[INFO] SolveP: 404.131 [ms]
time step continuity errors : sum local = 0.004982076857309473, global = 2.391488757755633e-05, cumulative = 0.0004199996301159062
[INFO] postSolveP: 38.617 [ms]
[OGL LOG][Proc: 0]: global_index_init: 2.891 [ms]
[OGL LOG][Proc: 0]nuTilda_local_coeffs: call_update: 0 [ms]
[OGL LOG][Proc: 0]nuTilda_non_local_coeffs: call_update: 0 [ms]
[OGL LOG][Proc: 0]nuTilda: update_local_matrix_data: 21.154 [ms]
[OGL LOG][Proc: 0]nuTilda: update_non_local_matrix_data: 0.111 [ms]
[OGL LOG][Proc: 0]nuTilda_matrix: call_update: 5.267 [ms]
[OGL LOG][Proc: 0]nuTilda_rhs: call_update: 1.786 [ms]
[OGL LOG][Preconditioner.H:121] Generate preconditioner BJ MaxBlockSize 1
[OGL LOG][Proc: 0]nuTilda: init_precond: 0.5610000000000001 [ms]
[OGL LOG][StoppingCriterion.H:373] Creating stopping criterion with minIter 3 frequency 1
[OGL LOG][Proc: 0]nuTilda: generate_solver: 0.001 [ms]
[OGL LOG][Proc: 0]nuTilda: solve: 51.122 [ms]
[OGL LOG][Proc: 0]nuTilda: copy_x_back: 2.02 [ms]
[OGL LOG][lduLduBase.H:336] 
Statistics:
	Time per iteration: 25561 [mu s]
	Time per residual norm calculation: 326.000000 [mu s]
	Time per iteration and DOF: 2.026356 [ns]
	Retrieve results bandwidth 1.876000 [GByte/s]
[OGL LOG][Proc: 0]nuTilda: solve_multi_gpu: 61.86 [ms]
BJhipGKOBiCGStab:  Solving for nuTilda, Initial residual = 0.01519535588181152, Final residual = 0.001436763941129838, No Iterations 2
bounding nuTilda, min: -0.0002893134057627129 max: 0.007045578447560935 average: 0.0003628027658011249
[INFO] TimeStep: 2486.762 [ms]
ExecutionTime = 174.67 s  ClockTime = 176 s

End

Finalising parallel run
