/*---------------------------------------------------------------------------*\
| =========                 |                                                 |
| \\      /  F ield         | OpenFOAM: The Open Source CFD Toolbox           |
|  \\    /   O peration     | Version:  2306                                  |
|   \\  /    A nd           | Website:  www.openfoam.com                      |
|    \\/     M anipulation  |                                                 |
\*---------------------------------------------------------------------------*/
Build  : c423ebec-20231012 OPENFOAM=2306 version=v2306
Arch   : "LSB;label=32;scalar=64"
Exec   : icoFoam -parallel -case /hkfs/work/workspace/scratch/eq4036-l3d_multi/workspace/96d1320d4dca448de332cd19d8858e65/case
Date   : Feb 05 2024
Time   : 08:54:08
Host   : hkn0331.localdomain
PID    : 729876
I/O    : uncollated
Case   : /hkfs/work/workspace/scratch/eq4036-l3d_multi/workspace/96d1320d4dca448de332cd19d8858e65/case
nProcs : 380
Hosts  :
(
    (hkn0331.localdomain 76)
    (hkn0332.localdomain 76)
    (hkn0333.localdomain 76)
    (hkn0334.localdomain 76)
    (hkn0335.localdomain 76)
)
Pstream initialized with:
    floatTransfer      : false
    nProcsSimpleSum    : 0
    nonBlockingExchange: 0 (tuning: 0)
    exchange algorithm : -1
    commsType          : nonBlocking
    polling iterations : 0
trapFpe: Floating point exception trapping enabled (FOAM_SIGFPE).
fileModificationChecking : Monitoring run-time modified files using timeStampMaster (fileModificationSkew 5, maxFileModificationPolls 20)
allowSystemOperations : Allowing user-supplied system call operations

// * * * * * * * * * * * * * * * * * * * * * * * * * * * * * * * * * * * * * //
Create time

--> FOAM Warning : 
    From void* Foam::dlLibraryTable::openLibrary(const Foam::fileName&, bool)
    in file db/dynamicLibrary/dlLibraryTable/dlLibraryTable.C at line 188
    Could not load "libpetscFoam.so"
libpetscFoam.so: cannot open shared object file: No such file or directory
Create mesh for time = 0


PISO: Operating solver in PISO mode

Reading transportProperties

Reading field p

Reading field U

Reading/calculating face flux field phi


Starting time loop

Time = 0.0001

Courant Number mean: 6.42004e-18 max: 3.88578e-14
[INFO] MatrixAssemblyU: 99.433 [ms]
DILUPBiCGStab:  Solving for Ux, Initial residual = 1, Final residual = 0.0209002, No Iterations 5
DILUPBiCGStab:  Solving for Uy:  solution singularity
DILUPBiCGStab:  Solving for Uz:  solution singularity
[INFO] MomentumPredictor: 328.158 [ms]
[INFO] MatrixAssemblyPI: 96.734 [ms]
[INFO] AdjustPhi: 14.682 [ms]
[INFO] ConstrainPressure: 0.007 [ms]
[INFO] MatrixAssemblyPII: 23.274 [ms]
nonePCG:  Solving for p, Initial residual = 1, Final residual = 9.98985e-05, No Iterations 3243
[INFO] SolveP: 29397.2 [ms]
time step continuity errors : sum local = 2.17922e-09, global = 3.32469e-21, cumulative = 3.32469e-21
[INFO] ContinuityError: 17.234 [ms]
[INFO] CorrectBoundary: 0.297 [ms]
[INFO] PISOStep: 29588.3 [ms]
[INFO] MatrixAssemblyPI: 92.086 [ms]
[INFO] AdjustPhi: 9.383 [ms]
[INFO] ConstrainPressure: 0.003 [ms]
[INFO] MatrixAssemblyPII: 25.323 [ms]
nonePCG:  Solving for p, Initial residual = 0.823318, Final residual = 9.91324e-05, No Iterations 3230
[INFO] SolveP: 28441.9 [ms]
time step continuity errors : sum local = 2.58253e-09, global = 2.76544e-22, cumulative = 3.60123e-21
[INFO] ContinuityError: 10.055 [ms]
[INFO] CorrectBoundary: 0.33 [ms]
[INFO] PISOStep: 28614.6 [ms]
[INFO] TimeStep: 58649.8 [ms]
ExecutionTime = 59.26 s  ClockTime = 61 s

Time = 0.0002

Courant Number mean: 0.00799714 max: 0.345553
[INFO] MatrixAssemblyU: 84.316 [ms]
DILUPBiCGStab:  Solving for Ux, Initial residual = 0.113112, Final residual = 0.0128149, No Iterations 5
DILUPBiCGStab:  Solving for Uy, Initial residual = 0.460424, Final residual = 0.0451913, No Iterations 5
DILUPBiCGStab:  Solving for Uz, Initial residual = 0.965054, Final residual = 0.102567, No Iterations 5
[INFO] MomentumPredictor: 633.332 [ms]
[INFO] MatrixAssemblyPI: 96.105 [ms]
[INFO] AdjustPhi: 6.73 [ms]
[INFO] ConstrainPressure: 0.003 [ms]
[INFO] MatrixAssemblyPII: 24.301 [ms]
nonePCG:  Solving for p, Initial residual = 0.901713, Final residual = 9.9822e-05, No Iterations 3181
[INFO] SolveP: 27852.4 [ms]
time step continuity errors : sum local = 5.33632e-09, global = 4.0897e-22, cumulative = 4.0102e-21
[INFO] ContinuityError: 10.164 [ms]
[INFO] CorrectBoundary: 0.776 [ms]
[INFO] PISOStep: 28024.5 [ms]
[INFO] MatrixAssemblyPI: 93.193 [ms]
[INFO] AdjustPhi: 9.599 [ms]
[INFO] ConstrainPressure: 0.003 [ms]
[INFO] MatrixAssemblyPII: 25.458 [ms]
nonePCG:  Solving for p, Initial residual = 0.847062, Final residual = 9.90151e-05, No Iterations 3178
[INFO] SolveP: 27137.6 [ms]
time step continuity errors : sum local = 5.39176e-09, global = 7.02295e-22, cumulative = 4.7125e-21
[INFO] ContinuityError: 9.801 [ms]
[INFO] CorrectBoundary: 0.318 [ms]
[INFO] PISOStep: 27310.2 [ms]
[INFO] TimeStep: 56063.3 [ms]
ExecutionTime = 114.93 s  ClockTime = 117 s

Time = 0.0003

Courant Number mean: 0.0124137 max: 0.398324
[INFO] MatrixAssemblyU: 84.618 [ms]
DILUPBiCGStab:  Solving for Ux, Initial residual = 0.052284, Final residual = 0.00503188, No Iterations 5
DILUPBiCGStab:  Solving for Uy, Initial residual = 0.220765, Final residual = 0.0251338, No Iterations 5
DILUPBiCGStab:  Solving for Uz, Initial residual = 0.834976, Final residual = 0.0766998, No Iterations 5
[INFO] MomentumPredictor: 637.569 [ms]
[INFO] MatrixAssemblyPI: 94.189 [ms]
[INFO] AdjustPhi: 7.856 [ms]
[INFO] ConstrainPressure: 0.002 [ms]
[INFO] MatrixAssemblyPII: 23.65 [ms]
nonePCG:  Solving for p, Initial residual = 0.928579, Final residual = 9.91019e-05, No Iterations 1530
[INFO] SolveP: 13033.3 [ms]
time step continuity errors : sum local = 5.92144e-09, global = 1.22919e-21, cumulative = 5.94169e-21
[INFO] ContinuityError: 11.048 [ms]
[INFO] CorrectBoundary: 0.356 [ms]
[INFO] PISOStep: 13202.5 [ms]
[INFO] MatrixAssemblyPI: 92.053 [ms]
[INFO] AdjustPhi: 12.224 [ms]
[INFO] ConstrainPressure: 0.003 [ms]
[INFO] MatrixAssemblyPII: 23.131 [ms]
nonePCG:  Solving for p, Initial residual = 0.891463, Final residual = 9.89934e-05, No Iterations 1515
[INFO] SolveP: 12943.3 [ms]
time step continuity errors : sum local = 5.71432e-09, global = 4.60553e-22, cumulative = 6.40224e-21
[INFO] ContinuityError: 8.366 [ms]
[INFO] CorrectBoundary: 0.216 [ms]
[INFO] PISOStep: 13115.3 [ms]
[INFO] TimeStep: 27051.2 [ms]
ExecutionTime = 141.79 s  ClockTime = 144 s

Time = 0.0004

Courant Number mean: 0.0151409 max: 0.380037
[INFO] MatrixAssemblyU: 84.212 [ms]
DILUPBiCGStab:  Solving for Ux, Initial residual = 0.037747, Final residual = 0.00403499, No Iterations 5
DILUPBiCGStab:  Solving for Uy, Initial residual = 0.168202, Final residual = 0.019762, No Iterations 5
DILUPBiCGStab:  Solving for Uz, Initial residual = 0.710809, Final residual = 0.0551622, No Iterations 5
[INFO] MomentumPredictor: 632.518 [ms]
[INFO] MatrixAssemblyPI: 94.424 [ms]
[INFO] AdjustPhi: 10.078 [ms]
[INFO] ConstrainPressure: 0.003 [ms]
[INFO] MatrixAssemblyPII: 23.435 [ms]
nonePCG:  Solving for p, Initial residual = 0.913819, Final residual = 9.97242e-05, No Iterations 1508
[INFO] SolveP: 12753.4 [ms]
time step continuity errors : sum local = 6.70204e-09, global = 7.55671e-22, cumulative = 7.15791e-21
[INFO] ContinuityError: 10.246 [ms]
[INFO] CorrectBoundary: 2.549 [ms]
[INFO] PISOStep: 12924.7 [ms]
[INFO] MatrixAssemblyPI: 91.655 [ms]
[INFO] AdjustPhi: 10.482 [ms]
[INFO] ConstrainPressure: 0.003 [ms]
[INFO] MatrixAssemblyPII: 23.486 [ms]
nonePCG:  Solving for p, Initial residual = 0.85166, Final residual = 9.82639e-05, No Iterations 1503
[INFO] SolveP: 12900.3 [ms]
time step continuity errors : sum local = 6.48394e-09, global = 8.88133e-22, cumulative = 8.04605e-21
[INFO] ContinuityError: 10.331 [ms]
[INFO] CorrectBoundary: 2.041 [ms]
[INFO] PISOStep: 13071.2 [ms]
[INFO] TimeStep: 26722.2 [ms]
ExecutionTime = 168.31 s  ClockTime = 171 s

Time = 0.0005

Courant Number mean: 0.0174272 max: 0.414963
[INFO] MatrixAssemblyU: 80.278 [ms]
DILUPBiCGStab:  Solving for Ux, Initial residual = 0.0318995, Final residual = 0.0035769, No Iterations 5
DILUPBiCGStab:  Solving for Uy, Initial residual = 0.129566, Final residual = 0.0167265, No Iterations 5
DILUPBiCGStab:  Solving for Uz, Initial residual = 0.639403, Final residual = 0.0433047, No Iterations 5
[INFO] MomentumPredictor: 628.036 [ms]
[INFO] MatrixAssemblyPI: 93.962 [ms]
[INFO] AdjustPhi: 8.057 [ms]
[INFO] ConstrainPressure: 0.003 [ms]
[INFO] MatrixAssemblyPII: 23.637 [ms]
nonePCG:  Solving for p, Initial residual = 0.931601, Final residual = 9.95386e-05, No Iterations 3073
[INFO] SolveP: 26027.8 [ms]
time step continuity errors : sum local = 6.51524e-09, global = 5.16424e-22, cumulative = 8.56247e-21
[INFO] ContinuityError: 8.378 [ms]
[INFO] CorrectBoundary: 0.34 [ms]
[INFO] PISOStep: 26197.3 [ms]
[INFO] MatrixAssemblyPI: 94.006 [ms]
[INFO] AdjustPhi: 5.856 [ms]
[INFO] ConstrainPressure: 0.003 [ms]
[INFO] MatrixAssemblyPII: 24.661 [ms]
nonePCG:  Solving for p, Initial residual = 0.888825, Final residual = 9.98952e-05, No Iterations 3071
[INFO] SolveP: 26026.2 [ms]
time step continuity errors : sum local = 6.47087e-09, global = 7.53324e-22, cumulative = 9.31579e-21
[INFO] ContinuityError: 8.88 [ms]
[INFO] CorrectBoundary: 0.571 [ms]
[INFO] PISOStep: 26196.5 [ms]
[INFO] TimeStep: 53111.9 [ms]
ExecutionTime = 221.03 s  ClockTime = 224 s

Time = 0.0006

Courant Number mean: 0.0192436 max: 0.384985
[INFO] MatrixAssemblyU: 84.855 [ms]
DILUPBiCGStab:  Solving for Ux, Initial residual = 0.0273855, Final residual = 0.00331154, No Iterations 5
DILUPBiCGStab:  Solving for Uy, Initial residual = 0.112677, Final residual = 0.0134378, No Iterations 5
DILUPBiCGStab:  Solving for Uz, Initial residual = 0.57262, Final residual = 0.0361501, No Iterations 5
[INFO] MomentumPredictor: 626.498 [ms]
[INFO] MatrixAssemblyPI: 94.185 [ms]
[INFO] AdjustPhi: 7.017 [ms]
[INFO] ConstrainPressure: 0.004 [ms]
[INFO] MatrixAssemblyPII: 23.698 [ms]
nonePCG:  Solving for p, Initial residual = 0.917504, Final residual = 9.89944e-05, No Iterations 3067
[INFO] SolveP: 26018 [ms]
time step continuity errors : sum local = 6.79184e-09, global = 7.85989e-22, cumulative = 1.01018e-20
[INFO] ContinuityError: 9.156 [ms]
[INFO] CorrectBoundary: 0.296 [ms]
[INFO] PISOStep: 26189.2 [ms]
[INFO] MatrixAssemblyPI: 94.042 [ms]
[INFO] AdjustPhi: 7.754 [ms]
[INFO] ConstrainPressure: 0.003 [ms]
[INFO] MatrixAssemblyPII: 24.959 [ms]
nonePCG:  Solving for p, Initial residual = 0.852469, Final residual = 9.9278e-05, No Iterations 3064
[INFO] SolveP: 26076.9 [ms]
time step continuity errors : sum local = 6.90864e-09, global = 5.46925e-22, cumulative = 1.06487e-20
[INFO] ContinuityError: 10.924 [ms]
[INFO] CorrectBoundary: 0.216 [ms]
[INFO] PISOStep: 26251.6 [ms]
[INFO] TimeStep: 53162.4 [ms]
ExecutionTime = 273.81 s  ClockTime = 277 s

Time = 0.0007

Courant Number mean: 0.0208626 max: 0.426897
[INFO] MatrixAssemblyU: 84.759 [ms]
DILUPBiCGStab:  Solving for Ux, Initial residual = 0.0250209, Final residual = 0.00307822, No Iterations 5
DILUPBiCGStab:  Solving for Uy, Initial residual = 0.101821, Final residual = 0.0122301, No Iterations 5
DILUPBiCGStab:  Solving for Uz, Initial residual = 0.552918, Final residual = 0.0317914, No Iterations 5
[INFO] MomentumPredictor: 629.579 [ms]
[INFO] MatrixAssemblyPI: 94.482 [ms]
[INFO] AdjustPhi: 6.631 [ms]
[INFO] ConstrainPressure: 0.003 [ms]
[INFO] MatrixAssemblyPII: 23.54 [ms]
nonePCG:  Solving for p, Initial residual = 0.9332, Final residual = 9.88254e-05, No Iterations 3062
[INFO] SolveP: 25956.3 [ms]
time step continuity errors : sum local = 6.84212e-09, global = 1.23348e-21, cumulative = 1.18822e-20
[INFO] ContinuityError: 10.053 [ms]
[INFO] CorrectBoundary: 0.376 [ms]
[INFO] PISOStep: 26129.7 [ms]
[INFO] MatrixAssemblyPI: 93.247 [ms]
[INFO] AdjustPhi: 7.724 [ms]
[INFO] ConstrainPressure: 0.004 [ms]
[INFO] MatrixAssemblyPII: 25.34 [ms]
nonePCG:  Solving for p, Initial residual = 0.884696, Final residual = 9.92944e-05, No Iterations 3060
[INFO] SolveP: 25985.3 [ms]
time step continuity errors : sum local = 6.81296e-09, global = 7.10253e-22, cumulative = 1.25924e-20
[INFO] ContinuityError: 8.489 [ms]
[INFO] CorrectBoundary: 0.232 [ms]
[INFO] PISOStep: 26155.3 [ms]
[INFO] TimeStep: 53011.5 [ms]
ExecutionTime = 326.44 s  ClockTime = 330 s

Time = 0.0008

Courant Number mean: 0.0222467 max: 0.387606
[INFO] MatrixAssemblyU: 84.122 [ms]
DILUPBiCGStab:  Solving for Ux, Initial residual = 0.0230524, Final residual = 0.00291359, No Iterations 5
DILUPBiCGStab:  Solving for Uy, Initial residual = 0.091401, Final residual = 0.0103622, No Iterations 5
DILUPBiCGStab:  Solving for Uz, Initial residual = 0.524248, Final residual = 0.029383, No Iterations 5
[INFO] MomentumPredictor: 624.898 [ms]
[INFO] MatrixAssemblyPI: 94.806 [ms]
[INFO] AdjustPhi: 7.231 [ms]
[INFO] ConstrainPressure: 0.004 [ms]
[INFO] MatrixAssemblyPII: 23.634 [ms]
nonePCG:  Solving for p, Initial residual = 0.919592, Final residual = 9.90492e-05, No Iterations 3058
[INFO] SolveP: 26022.9 [ms]
time step continuity errors : sum local = 7.13166e-09, global = 1.18569e-21, cumulative = 1.37781e-20
[INFO] ContinuityError: 10.446 [ms]
[INFO] CorrectBoundary: 0.8 [ms]
[INFO] PISOStep: 26197 [ms]
[INFO] MatrixAssemblyPI: 94.175 [ms]
[INFO] AdjustPhi: 6.077 [ms]
[INFO] ConstrainPressure: 0.002 [ms]
[INFO] MatrixAssemblyPII: 25.036 [ms]
nonePCG:  Solving for p, Initial residual = 0.851199, Final residual = 9.98435e-05, No Iterations 1513
[INFO] SolveP: 12751.8 [ms]
time step continuity errors : sum local = 8.05073e-09, global = 5.54459e-22, cumulative = 1.43326e-20
[INFO] ContinuityError: 10.415 [ms]
[INFO] CorrectBoundary: 1.208 [ms]
[INFO] PISOStep: 12920 [ms]
[INFO] TimeStep: 39837.8 [ms]
ExecutionTime = 365.99 s  ClockTime = 370 s

Time = 0.0009

Courant Number mean: 0.023533 max: 0.439462
[INFO] MatrixAssemblyU: 80.205 [ms]
DILUPBiCGStab:  Solving for Ux, Initial residual = 0.0218099, Final residual = 0.00274888, No Iterations 5
DILUPBiCGStab:  Solving for Uy, Initial residual = 0.0880246, Final residual = 0.00971401, No Iterations 5
DILUPBiCGStab:  Solving for Uz, Initial residual = 0.536898, Final residual = 0.0330242, No Iterations 5
[INFO] MomentumPredictor: 630.413 [ms]
[INFO] MatrixAssemblyPI: 93.138 [ms]
[INFO] AdjustPhi: 9.1 [ms]
[INFO] ConstrainPressure: 0.003 [ms]
[INFO] MatrixAssemblyPII: 23.821 [ms]
nonePCG:  Solving for p, Initial residual = 0.933625, Final residual = 9.95916e-05, No Iterations 3064
[INFO] SolveP: 25978 [ms]
time step continuity errors : sum local = 7.26771e-09, global = 5.54395e-22, cumulative = 1.4887e-20
[INFO] ContinuityError: 8.871 [ms]
[INFO] CorrectBoundary: 0.551 [ms]
[INFO] PISOStep: 26153.6 [ms]
[INFO] MatrixAssemblyPI: 96.464 [ms]
[INFO] AdjustPhi: 3.801 [ms]
[INFO] ConstrainPressure: 0.004 [ms]
[INFO] MatrixAssemblyPII: 25.736 [ms]
nonePCG:  Solving for p, Initial residual = 0.880491, Final residual = 9.92959e-05, No Iterations 3063
[INFO] SolveP: 26014.6 [ms]
time step continuity errors : sum local = 7.19171e-09, global = 1.02433e-21, cumulative = 1.59113e-20
[INFO] ContinuityError: 9.349 [ms]
[INFO] CorrectBoundary: 0.701 [ms]
[INFO] PISOStep: 26186.4 [ms]
[INFO] TimeStep: 53062.8 [ms]
ExecutionTime = 418.66 s  ClockTime = 423 s

Time = 0.001

Courant Number mean: 0.0246672 max: 0.392078
[INFO] MatrixAssemblyU: 83.54 [ms]
DILUPBiCGStab:  Solving for Ux, Initial residual = 0.0208054, Final residual = 0.00261493, No Iterations 5
DILUPBiCGStab:  Solving for Uy, Initial residual = 0.0808777, Final residual = 0.0085312, No Iterations 5
DILUPBiCGStab:  Solving for Uz, Initial residual = 0.518317, Final residual = 0.0275459, No Iterations 5
[INFO] MomentumPredictor: 626.122 [ms]
[INFO] MatrixAssemblyPI: 94.05 [ms]
[INFO] AdjustPhi: 9.196 [ms]
[INFO] ConstrainPressure: 0.003 [ms]
[INFO] MatrixAssemblyPII: 23.575 [ms]
nonePCG:  Solving for p, Initial residual = 0.922472, Final residual = 9.83307e-05, No Iterations 3059
[INFO] SolveP: 26188.7 [ms]
time step continuity errors : sum local = 7.53702e-09, global = -2.09745e-22, cumulative = 1.57016e-20
[INFO] ContinuityError: 9.824 [ms]
[INFO] CorrectBoundary: 0.309 [ms]
[INFO] PISOStep: 26362.7 [ms]
[INFO] MatrixAssemblyPI: 93.105 [ms]
[INFO] AdjustPhi: 10.643 [ms]
[INFO] ConstrainPressure: 0.004 [ms]
[INFO] MatrixAssemblyPII: 25.319 [ms]
nonePCG:  Solving for p, Initial residual = 0.850921, Final residual = 9.95846e-05, No Iterations 3055
[INFO] SolveP: 25715.4 [ms]
time step continuity errors : sum local = 7.72842e-09, global = 1.41148e-21, cumulative = 1.71131e-20
[INFO] ContinuityError: 11.525 [ms]
[INFO] CorrectBoundary: 1.714 [ms]
[INFO] PISOStep: 25888.2 [ms]
[INFO] TimeStep: 52972.8 [ms]
ExecutionTime = 471.24 s  ClockTime = 476 s

Time = 0.0011

Courant Number mean: 0.0257501 max: 0.454188
[INFO] MatrixAssemblyU: 80.491 [ms]
DILUPBiCGStab:  Solving for Ux, Initial residual = 0.0198418, Final residual = 0.0024389, No Iterations 5
DILUPBiCGStab:  Solving for Uy, Initial residual = 0.0805787, Final residual = 0.00824077, No Iterations 5
DILUPBiCGStab:  Solving for Uz, Initial residual = 0.518039, Final residual = 0.0258432, No Iterations 5
[INFO] MomentumPredictor: 651.33 [ms]
[INFO] MatrixAssemblyPI: 101.961 [ms]
[INFO] AdjustPhi: 4.159 [ms]
[INFO] ConstrainPressure: 0.004 [ms]
[INFO] MatrixAssemblyPII: 25.837 [ms]
nonePCG:  Solving for p, Initial residual = 0.936694, Final residual = 9.96155e-05, No Iterations 2823
[INFO] SolveP: 23999.2 [ms]
time step continuity errors : sum local = 7.84011e-09, global = 5.59841e-22, cumulative = 1.76729e-20
[INFO] ContinuityError: 10.449 [ms]
[INFO] CorrectBoundary: 1.31 [ms]
[INFO] PISOStep: 24174 [ms]
[INFO] MatrixAssemblyPI: 91.467 [ms]
[INFO] AdjustPhi: 9.745 [ms]
[INFO] ConstrainPressure: 0.003 [ms]
[INFO] MatrixAssemblyPII: 23.78 [ms]
nonePCG:  Solving for p, Initial residual = 0.878293, Final residual = 9.98725e-05, No Iterations 2820
[INFO] SolveP: 24032.8 [ms]
time step continuity errors : sum local = 7.81179e-09, global = 2.15051e-22, cumulative = 1.78879e-20
[INFO] ContinuityError: 10.04 [ms]
[INFO] CorrectBoundary: 0.336 [ms]
[INFO] PISOStep: 24202.8 [ms]
[INFO] TimeStep: 49120.1 [ms]
ExecutionTime = 520.01 s  ClockTime = 525 s

Time = 0.0012

Courant Number mean: 0.0267174 max: 0.396612
[INFO] MatrixAssemblyU: 84.143 [ms]
DILUPBiCGStab:  Solving for Ux, Initial residual = 0.0194779, Final residual = 0.00238425, No Iterations 5
DILUPBiCGStab:  Solving for Uy, Initial residual = 0.0747652, Final residual = 0.00729715, No Iterations 5
DILUPBiCGStab:  Solving for Uz, Initial residual = 0.513973, Final residual = 0.0252333, No Iterations 5
[INFO] MomentumPredictor: 630.284 [ms]
[INFO] MatrixAssemblyPI: 94.555 [ms]
[INFO] AdjustPhi: 7.624 [ms]
[INFO] ConstrainPressure: 0.003 [ms]
[INFO] MatrixAssemblyPII: 23.718 [ms]
nonePCG:  Solving for p, Initial residual = 0.926992, Final residual = 9.95491e-05, No Iterations 3021
[INFO] SolveP: 25714.6 [ms]
time step continuity errors : sum local = 8.28971e-09, global = 1.23656e-21, cumulative = 1.91245e-20
[INFO] ContinuityError: 8.933 [ms]
[INFO] CorrectBoundary: 0.309 [ms]
[INFO] PISOStep: 25885.4 [ms]
[INFO] MatrixAssemblyPI: 92.64 [ms]
[INFO] AdjustPhi: 12.192 [ms]
[INFO] ConstrainPressure: 0.004 [ms]
[INFO] MatrixAssemblyPII: 25.034 [ms]
nonePCG:  Solving for p, Initial residual = 0.853382, Final residual = 9.88461e-05, No Iterations 3014
[INFO] SolveP: 25681.4 [ms]
time step continuity errors : sum local = 8.32386e-09, global = 1.23539e-21, cumulative = 2.03599e-20
[INFO] ContinuityError: 9.153 [ms]
[INFO] CorrectBoundary: 0.224 [ms]
[INFO] PISOStep: 25860.2 [ms]
[INFO] TimeStep: 52471.5 [ms]
ExecutionTime = 572.08 s  ClockTime = 578 s

Time = 0.0013

Courant Number mean: 0.0276627 max: 0.471804
[INFO] MatrixAssemblyU: 90.839 [ms]
DILUPBiCGStab:  Solving for Ux, Initial residual = 0.0187986, Final residual = 0.00221493, No Iterations 5
DILUPBiCGStab:  Solving for Uy, Initial residual = 0.076119, Final residual = 0.00720822, No Iterations 5
DILUPBiCGStab:  Solving for Uz, Initial residual = 0.523732, Final residual = 0.0251844, No Iterations 5
[INFO] MomentumPredictor: 619.652 [ms]
[INFO] MatrixAssemblyPI: 94.449 [ms]
[INFO] AdjustPhi: 6.744 [ms]
[INFO] ConstrainPressure: 0.003 [ms]
[INFO] MatrixAssemblyPII: 23.67 [ms]
nonePCG:  Solving for p, Initial residual = 0.939862, Final residual = 9.95128e-05, No Iterations 2851
[INFO] SolveP: 24058.8 [ms]
time step continuity errors : sum local = 8.55287e-09, global = 1.29774e-21, cumulative = 2.16576e-20
[INFO] ContinuityError: 8.405 [ms]
[INFO] CorrectBoundary: 0.553 [ms]
[INFO] PISOStep: 24227.6 [ms]
[INFO] MatrixAssemblyPI: 92.395 [ms]
[INFO] AdjustPhi: 8.203 [ms]
[INFO] ConstrainPressure: 0.004 [ms]
[INFO] MatrixAssemblyPII: 24.613 [ms]
nonePCG:  Solving for p, Initial residual = 0.877936, Final residual = 9.99198e-05, No Iterations 2838
[INFO] SolveP: 24061.7 [ms]
time step continuity errors : sum local = 8.54614e-09, global = 8.00938e-22, cumulative = 2.24586e-20
[INFO] ContinuityError: 10.929 [ms]
[INFO] CorrectBoundary: 0.989 [ms]
[INFO] PISOStep: 24231 [ms]
[INFO] TimeStep: 49180.4 [ms]
ExecutionTime = 620.89 s  ClockTime = 627 s

Time = 0.0014

Courant Number mean: 0.0285112 max: 0.401684
[INFO] MatrixAssemblyU: 82.014 [ms]
DILUPBiCGStab:  Solving for Ux, Initial residual = 0.0187465, Final residual = 0.00219109, No Iterations 5
DILUPBiCGStab:  Solving for Uy, Initial residual = 0.0717719, Final residual = 0.00645972, No Iterations 5
DILUPBiCGStab:  Solving for Uz, Initial residual = 0.529374, Final residual = 0.0264244, No Iterations 5
[INFO] MomentumPredictor: 645.962 [ms]
[INFO] MatrixAssemblyPI: 94.163 [ms]
[INFO] AdjustPhi: 9.089 [ms]
[INFO] ConstrainPressure: 0.003 [ms]
[INFO] MatrixAssemblyPII: 23.804 [ms]
nonePCG:  Solving for p, Initial residual = 0.93168, Final residual = 9.97371e-05, No Iterations 3041
[INFO] SolveP: 25750.2 [ms]
time step continuity errors : sum local = 9.07211e-09, global = 1.28638e-22, cumulative = 2.25872e-20
[INFO] ContinuityError: 8.999 [ms]
[INFO] CorrectBoundary: 0.402 [ms]
[INFO] PISOStep: 25923.7 [ms]
[INFO] MatrixAssemblyPI: 93.476 [ms]
[INFO] AdjustPhi: 9.286 [ms]
[INFO] ConstrainPressure: 0.003 [ms]
[INFO] MatrixAssemblyPII: 25.218 [ms]
nonePCG:  Solving for p, Initial residual = 0.856497, Final residual = 9.93494e-05, No Iterations 3034
[INFO] SolveP: 25716.9 [ms]
time step continuity errors : sum local = 9.12746e-09, global = 1.07759e-21, cumulative = 2.36648e-20
[INFO] ContinuityError: 9.267 [ms]
[INFO] CorrectBoundary: 0.827 [ms]
[INFO] PISOStep: 25889.2 [ms]
[INFO] TimeStep: 52551.3 [ms]
ExecutionTime = 673.05 s  ClockTime = 679 s

Time = 0.0015

Courant Number mean: 0.0293559 max: 0.493421
[INFO] MatrixAssemblyU: 84.757 [ms]
DILUPBiCGStab:  Solving for Ux, Initial residual = 0.018336, Final residual = 0.00204728, No Iterations 5
DILUPBiCGStab:  Solving for Uy, Initial residual = 0.0739057, Final residual = 0.00647215, No Iterations 5
DILUPBiCGStab:  Solving for Uz, Initial residual = 0.5365, Final residual = 0.0249722, No Iterations 5
[INFO] MomentumPredictor: 633.448 [ms]
[INFO] MatrixAssemblyPI: 93.702 [ms]
[INFO] AdjustPhi: 8.877 [ms]
[INFO] ConstrainPressure: 0.003 [ms]
[INFO] MatrixAssemblyPII: 23.716 [ms]
nonePCG:  Solving for p, Initial residual = 0.943029, Final residual = 9.93873e-05, No Iterations 2902
[INFO] SolveP: 24681.9 [ms]
time step continuity errors : sum local = 9.36264e-09, global = 2.05081e-21, cumulative = 2.57156e-20
[INFO] ContinuityError: 10.854 [ms]
[INFO] CorrectBoundary: 0.324 [ms]
[INFO] PISOStep: 24854.5 [ms]
[INFO] MatrixAssemblyPI: 92.305 [ms]
[INFO] AdjustPhi: 7.42 [ms]
[INFO] ConstrainPressure: 0.004 [ms]
[INFO] MatrixAssemblyPII: 24.815 [ms]
nonePCG:  Solving for p, Initial residual = 0.877771, Final residual = 9.94056e-05, No Iterations 2874
[INFO] SolveP: 24372.5 [ms]
time step continuity errors : sum local = 9.33028e-09, global = 6.7225e-22, cumulative = 2.63879e-20
[INFO] ContinuityError: 8.386 [ms]
[INFO] CorrectBoundary: 0.454 [ms]
[INFO] PISOStep: 24540.9 [ms]
[INFO] TimeStep: 50123.7 [ms]
ExecutionTime = 722.8 s  ClockTime = 729 s

Time = 0.0016

Courant Number mean: 0.0301143 max: 0.407642
[INFO] MatrixAssemblyU: 83.357 [ms]
DILUPBiCGStab:  Solving for Ux, Initial residual = 0.0184773, Final residual = 0.00203645, No Iterations 5
DILUPBiCGStab:  Solving for Uy, Initial residual = 0.0707423, Final residual = 0.00586477, No Iterations 5
DILUPBiCGStab:  Solving for Uz, Initial residual = 0.542018, Final residual = 0.0257946, No Iterations 5
[INFO] MomentumPredictor: 618.664 [ms]
[INFO] MatrixAssemblyPI: 95.344 [ms]
[INFO] AdjustPhi: 6.733 [ms]
[INFO] ConstrainPressure: 0.003 [ms]
[INFO] MatrixAssemblyPII: 23.657 [ms]
nonePCG:  Solving for p, Initial residual = 0.936157, Final residual = 9.87804e-05, No Iterations 3054
[INFO] SolveP: 26198.7 [ms]
time step continuity errors : sum local = 9.84464e-09, global = 9.8465e-22, cumulative = 2.73725e-20
[INFO] ContinuityError: 8.482 [ms]
[INFO] CorrectBoundary: 0.542 [ms]
[INFO] PISOStep: 26368.1 [ms]
[INFO] MatrixAssemblyPI: 93.759 [ms]
[INFO] AdjustPhi: 6.194 [ms]
[INFO] ConstrainPressure: 0.003 [ms]
[INFO] MatrixAssemblyPII: 24.442 [ms]
nonePCG:  Solving for p, Initial residual = 0.859839, Final residual = 9.86358e-05, No Iterations 3049
[INFO] SolveP: 25943.4 [ms]
time step continuity errors : sum local = 9.91761e-09, global = 5.57814e-22, cumulative = 2.79303e-20
[INFO] ContinuityError: 10.307 [ms]
[INFO] CorrectBoundary: 0.377 [ms]
[INFO] PISOStep: 26113.3 [ms]
[INFO] TimeStep: 53193.4 [ms]
ExecutionTime = 775.6 s  ClockTime = 783 s

Time = 0.0017

Courant Number mean: 0.0308825 max: 0.519613
[INFO] MatrixAssemblyU: 83.932 [ms]
DILUPBiCGStab:  Solving for Ux, Initial residual = 0.0183091, Final residual = 0.00191829, No Iterations 5
DILUPBiCGStab:  Solving for Uy, Initial residual = 0.0734088, Final residual = 0.00593427, No Iterations 5
DILUPBiCGStab:  Solving for Uz, Initial residual = 0.551172, Final residual = 0.0249572, No Iterations 5
[INFO] MomentumPredictor: 618.81 [ms]
[INFO] MatrixAssemblyPI: 94.022 [ms]
[INFO] AdjustPhi: 7.531 [ms]
[INFO] ConstrainPressure: 0.003 [ms]
[INFO] MatrixAssemblyPII: 23.8 [ms]
nonePCG:  Solving for p, Initial residual = 0.946067, Final residual = 9.962e-05, No Iterations 3049
[INFO] SolveP: 25956 [ms]
time step continuity errors : sum local = 1.03196e-08, global = 1.11471e-21, cumulative = 2.9045e-20
[INFO] ContinuityError: 11.276 [ms]
[INFO] CorrectBoundary: 1.214 [ms]
[INFO] PISOStep: 26126.1 [ms]
[INFO] MatrixAssemblyPI: 90.27 [ms]
[INFO] AdjustPhi: 11.696 [ms]
[INFO] ConstrainPressure: 0.003 [ms]
[INFO] MatrixAssemblyPII: 22.678 [ms]
nonePCG:  Solving for p, Initial residual = 0.878103, Final residual = 9.92074e-05, No Iterations 3042
[INFO] SolveP: 25720.5 [ms]
time step continuity errors : sum local = 1.02509e-08, global = 1.27408e-21, cumulative = 3.03191e-20
[INFO] ContinuityError: 9.495 [ms]
[INFO] CorrectBoundary: 0.363 [ms]
[INFO] PISOStep: 25892.8 [ms]
[INFO] TimeStep: 52732.1 [ms]
ExecutionTime = 827.95 s  ClockTime = 835 s

Time = 0.0018

Courant Number mean: 0.0315701 max: 0.41458
[INFO] MatrixAssemblyU: 84.825 [ms]
DILUPBiCGStab:  Solving for Ux, Initial residual = 0.0186505, Final residual = 0.0019255, No Iterations 5
DILUPBiCGStab:  Solving for Uy, Initial residual = 0.0713582, Final residual = 0.00544934, No Iterations 5
DILUPBiCGStab:  Solving for Uz, Initial residual = 0.555647, Final residual = 0.0250582, No Iterations 5
[INFO] MomentumPredictor: 634.136 [ms]
[INFO] MatrixAssemblyPI: 94.6 [ms]
[INFO] AdjustPhi: 8.585 [ms]
[INFO] ConstrainPressure: 0.003 [ms]
[INFO] MatrixAssemblyPII: 23.731 [ms]
nonePCG:  Solving for p, Initial residual = 0.94137, Final residual = 9.85711e-05, No Iterations 3055
[INFO] SolveP: 26035.2 [ms]
time step continuity errors : sum local = 1.08051e-08, global = 1.02482e-21, cumulative = 3.13439e-20
[INFO] ContinuityError: 8.632 [ms]
[INFO] CorrectBoundary: 0.536 [ms]
[INFO] PISOStep: 26206.5 [ms]
[INFO] MatrixAssemblyPI: 93.337 [ms]
[INFO] AdjustPhi: 6.676 [ms]
[INFO] ConstrainPressure: 0.004 [ms]
[INFO] MatrixAssemblyPII: 24.67 [ms]
nonePCG:  Solving for p, Initial residual = 0.864145, Final residual = 9.89804e-05, No Iterations 3049
[INFO] SolveP: 25858.4 [ms]
time step continuity errors : sum local = 1.09357e-08, global = 1.23968e-21, cumulative = 3.25836e-20
[INFO] ContinuityError: 9.271 [ms]
[INFO] CorrectBoundary: 0.219 [ms]
[INFO] PISOStep: 26027.6 [ms]
[INFO] TimeStep: 52964.6 [ms]
ExecutionTime = 880.52 s  ClockTime = 888 s

Time = 0.0019

Courant Number mean: 0.0322788 max: 0.551478
[INFO] MatrixAssemblyU: 84.953 [ms]
DILUPBiCGStab:  Solving for Ux, Initial residual = 0.018662, Final residual = 0.00181601, No Iterations 5
DILUPBiCGStab:  Solving for Uy, Initial residual = 0.0744528, Final residual = 0.00554814, No Iterations 5
DILUPBiCGStab:  Solving for Uz, Initial residual = 0.56733, Final residual = 0.0251678, No Iterations 5
[INFO] MomentumPredictor: 625.313 [ms]
[INFO] MatrixAssemblyPI: 94.47 [ms]
[INFO] AdjustPhi: 6.445 [ms]
[INFO] ConstrainPressure: 0.003 [ms]
[INFO] MatrixAssemblyPII: 23.742 [ms]
nonePCG:  Solving for p, Initial residual = 0.949577, Final residual = 9.98172e-05, No Iterations 3052
[INFO] SolveP: 26253.1 [ms]
time step continuity errors : sum local = 1.14226e-08, global = 7.62358e-22, cumulative = 3.3346e-20
[INFO] ContinuityError: 9.54 [ms]
[INFO] CorrectBoundary: 0.641 [ms]
[INFO] PISOStep: 26423.6 [ms]
[INFO] MatrixAssemblyPI: 93.601 [ms]
[INFO] AdjustPhi: 7.976 [ms]
[INFO] ConstrainPressure: 0.003 [ms]
[INFO] MatrixAssemblyPII: 24.408 [ms]
nonePCG:  Solving for p, Initial residual = 0.879322, Final residual = 9.96248e-05, No Iterations 3045
[INFO] SolveP: 25829.7 [ms]
time step continuity errors : sum local = 1.13834e-08, global = 1.4348e-21, cumulative = 3.47808e-20
[INFO] ContinuityError: 9.358 [ms]
[INFO] CorrectBoundary: 0.222 [ms]
[INFO] PISOStep: 26000.2 [ms]
[INFO] TimeStep: 53143.9 [ms]
ExecutionTime = 933.28 s  ClockTime = 942 s

Time = 0.002

Courant Number mean: 0.0329083 max: 0.422877
[INFO] MatrixAssemblyU: 85.214 [ms]
DILUPBiCGStab:  Solving for Ux, Initial residual = 0.0191778, Final residual = 0.00183204, No Iterations 5
DILUPBiCGStab:  Solving for Uy, Initial residual = 0.0733811, Final residual = 0.00516498, No Iterations 5
DILUPBiCGStab:  Solving for Uz, Initial residual = 0.57336, Final residual = 0.0253795, No Iterations 5
[INFO] MomentumPredictor: 627.985 [ms]
[INFO] MatrixAssemblyPI: 94.576 [ms]
[INFO] AdjustPhi: 7.841 [ms]
[INFO] ConstrainPressure: 0.003 [ms]
[INFO] MatrixAssemblyPII: 23.775 [ms]
nonePCG:  Solving for p, Initial residual = 0.946449, Final residual = 9.87385e-05, No Iterations 3058
[INFO] SolveP: 25891.9 [ms]
time step continuity errors : sum local = 1.19638e-08, global = 1.11014e-21, cumulative = 3.58909e-20
[INFO] ContinuityError: 9.222 [ms]
[INFO] CorrectBoundary: 0.74 [ms]
[INFO] PISOStep: 26062.3 [ms]
[INFO] MatrixAssemblyPI: 93.342 [ms]
[INFO] AdjustPhi: 5.002 [ms]
[INFO] ConstrainPressure: 0.003 [ms]
[INFO] MatrixAssemblyPII: 24.46 [ms]
nonePCG:  Solving for p, Initial residual = 0.868478, Final residual = 9.86762e-05, No Iterations 3054
[INFO] SolveP: 26144.2 [ms]
time step continuity errors : sum local = 1.20412e-08, global = 1.96054e-21, cumulative = 3.78515e-20
[INFO] ContinuityError: 9.375 [ms]
[INFO] CorrectBoundary: 0.304 [ms]
[INFO] PISOStep: 26313.3 [ms]
[INFO] TimeStep: 53098.9 [ms]
ExecutionTime = 986 s  ClockTime = 995 s

End

Finalising parallel run
