/*---------------------------------------------------------------------------*\
| =========                 |                                                 |
| \\      /  F ield         | OpenFOAM: The Open Source CFD Toolbox           |
|  \\    /   O peration     | Version:  2306                                  |
|   \\  /    A nd           | Website:  www.openfoam.com                      |
|    \\/     M anipulation  |                                                 |
\*---------------------------------------------------------------------------*/
Build  : a6e826bd55-20230630 OPENFOAM=2306 version=v2306
Arch   : "LSB;label=32;scalar=64"
Exec   : simpleFoam -parallel -case /home/greole/data/code/exasim_project/micro_benchmarks/WindsorBody/workspace/b25a20f9e69958e078e1dbc05e3e07b0/case
Date   : Aug 11 2023
Time   : 23:24:26
Host   : nla-gpu2.ianm.kit.edu
PID    : 2485189
I/O    : uncollated
Case   : /home/greole/data/code/exasim_project/micro_benchmarks/WindsorBody/workspace/b25a20f9e69958e078e1dbc05e3e07b0/case
nProcs : 16
Hosts  :
(
    (nla-gpu2.ianm.kit.edu 16)
)
Pstream initialized with:
    floatTransfer      : false
    nProcsSimpleSum    : 0
    nonBlockingExchange: 0 (tuning: 0)
    exchange algorithm : -1
    commsType          : nonBlocking
    polling iterations : 0
trapFpe: Floating point exception trapping enabled (FOAM_SIGFPE).
fileModificationChecking : Monitoring run-time modified files using timeStampMaster (fileModificationSkew 5, maxFileModificationPolls 20)
allowSystemOperations : Allowing user-supplied system call operations

// * * * * * * * * * * * * * * * * * * * * * * * * * * * * * * * * * * * * * //
Create time

--> FOAM Warning : 
    From void* Foam::dlLibraryTable::openLibrary(const Foam::fileName&, bool)
    in file db/dynamicLibrary/dlLibraryTable/dlLibraryTable.C at line 188
    Could not load "libpetscFoam.so"
libpetscFoam.so: cannot open shared object file: No such file or directory
Create mesh for time = 0


SIMPLE: convergence criteria
    field p	 tolerance 1e-08
    field U	 tolerance 1e-08
    field k	 tolerance 1e-08
    field omega	 tolerance 1e-08
    field nuTilda	 tolerance 1e-08

Reading field p

Reading field U

Reading/calculating face flux field phi

Selecting incompressible transport model Newtonian
Selecting turbulence model type RAS
Selecting RAS turbulence model SpalartAllmaras
Selecting patchDistMethod meshWave
ft2 term: inactive
RAS
{
    RASModel        SpalartAllmaras;
    turbulence      on;
    printCoeffs     on;
    sigmaNut        0.66666;
    kappa           0.41;
    Cb1             0.1355;
    Cb2             0.622;
    Cw2             0.3;
    Cw3             2;
    Cv1             7.1;
    Cs              0.3;
    ck              0.07000000000000001;
    ft2             false;
    Ct3             1.2;
    Ct4             0.5;
}

No MRF models present

Creating finite volume options from "system/fvOptions"

Selecting finite volume options type velocityDampingConstraint
    Source: velocityDamping
    - selecting all cells
    - selected 12614272 cell(s) with volume 55.65166103214618

Starting time loop

--> FOAM Warning : 
    From bool Foam::functionObjectList::read()
    in file db/functionObjects/functionObjectList/functionObjectList.C at line 1035
    Reading "system/controlDict" at line 2 to 41
    Entry 'lref' is not a dictionary
--> FOAM Warning : 
    From bool Foam::functionObjectList::read()
    in file db/functionObjects/functionObjectList/functionObjectList.C at line 1035
    Reading "system/controlDict" at line 2 to 41
    Entry 'Aref' is not a dictionary
--> FOAM Warning : 
    From bool Foam::functionObjectList::read()
    in file db/functionObjects/functionObjectList/functionObjectList.C at line 1035
    Reading "system/controlDict" at line 2 to 41
    Entry 'yawAngle' is not a dictionary
--> FOAM Warning : 
    From bool Foam::functionObjectList::read()
    in file db/functionObjects/functionObjectList/functionObjectList.C at line 1035
    Reading "system/controlDict" at line 2 to 41
    Entry 'lDomain' is not a dictionary
--> FOAM Warning : 
    From bool Foam::functionObjectList::read()
    in file db/functionObjects/functionObjectList/functionObjectList.C at line 1035
    Reading "system/controlDict" at line 2 to 41
    Entry 'bDomain' is not a dictionary
--> FOAM Warning : 
    From bool Foam::functionObjectList::read()
    in file db/functionObjects/functionObjectList/functionObjectList.C at line 1035
    Reading "system/controlDict" at line 2 to 41
    Entry 'hDomain' is not a dictionary
--> FOAM Warning : 
    From bool Foam::functionObjectList::read()
    in file db/functionObjects/functionObjectList/functionObjectList.C at line 1035
    Reading "system/controlDict" at line 2 to 41
    Entry 'xCenter' is not a dictionary
--> FOAM Warning : 
    From bool Foam::functionObjectList::read()
    in file db/functionObjects/functionObjectList/functionObjectList.C at line 1035
    Reading "system/controlDict" at line 2 to 41
    Entry 'yCenter' is not a dictionary
--> FOAM Warning : 
    From bool Foam::functionObjectList::read()
    in file db/functionObjects/functionObjectList/functionObjectList.C at line 1035
    Reading "system/controlDict" at line 2 to 41
    Entry 'zCenter' is not a dictionary
--> FOAM Warning : 
    From bool Foam::functionObjectList::read()
    in file db/functionObjects/functionObjectList/functionObjectList.C at line 1035
    Reading "system/controlDict" at line 2 to 41
    Entry 'inletPatch' is not a dictionary
--> FOAM Warning : 
    From bool Foam::functionObjectList::read()
    in file db/functionObjects/functionObjectList/functionObjectList.C at line 1035
    Reading "system/controlDict" at line 2 to 41
    Entry 'outletPatch' is not a dictionary
--> FOAM Warning : 
    From bool Foam::functionObjectList::read()
    in file db/functionObjects/functionObjectList/functionObjectList.C at line 1035
    Reading "system/controlDict" at line 2 to 41
    Entry 'wallPatches' is not a dictionary
--> FOAM Warning : 
    From bool Foam::functionObjectList::read()
    in file db/functionObjects/functionObjectList/functionObjectList.C at line 1035
    Reading "system/controlDict" at line 2 to 41
    Entry 'forcesWallPatches' is not a dictionary
--> FOAM Warning : 
    From bool Foam::functionObjectList::read()
    in file db/functionObjects/functionObjectList/functionObjectList.C at line 1035
    Reading "system/controlDict" at line 2 to 41
    Entry 'symmPatches' is not a dictionary
--> FOAM Warning : 
    From bool Foam::functionObjectList::read()
    in file db/functionObjects/functionObjectList/functionObjectList.C at line 1035
    Reading "system/controlDict" at line 2 to 41
    Entry 'Uinf' is not a dictionary
--> FOAM Warning : 
    From bool Foam::functionObjectList::read()
    in file db/functionObjects/functionObjectList/functionObjectList.C at line 1035
    Reading "system/controlDict" at line 2 to 41
    Entry 'UinfMag' is not a dictionary
--> FOAM Warning : 
    From bool Foam::functionObjectList::read()
    in file db/functionObjects/functionObjectList/functionObjectList.C at line 1035
    Reading "system/controlDict" at line 2 to 41
    Entry 'nu' is not a dictionary
--> FOAM Warning : 
    From bool Foam::functionObjectList::read()
    in file db/functionObjects/functionObjectList/functionObjectList.C at line 1035
    Reading "system/controlDict" at line 2 to 41
    Entry 'pref' is not a dictionary
--> FOAM Warning : 
    From bool Foam::functionObjectList::read()
    in file db/functionObjects/functionObjectList/functionObjectList.C at line 1035
    Reading "system/controlDict" at line 2 to 41
    Entry 'viscRatio' is not a dictionary
--> FOAM Warning : 
    From bool Foam::functionObjectList::read()
    in file db/functionObjects/functionObjectList/functionObjectList.C at line 1035
    Reading "system/controlDict" at line 2 to 41
    Entry 'Tu' is not a dictionary
--> FOAM Warning : 
    From bool Foam::functionObjectList::read()
    in file db/functionObjects/functionObjectList/functionObjectList.C at line 1035
    Reading "system/controlDict" at line 2 to 41
    Entry 'LESturbModel' is not a dictionary
--> FOAM Warning : 
    From bool Foam::functionObjectList::read()
    in file db/functionObjects/functionObjectList/functionObjectList.C at line 1035
    Reading "system/controlDict" at line 2 to 41
    Entry 'RASturbModel' is not a dictionary
--> FOAM Warning : 
    From bool Foam::functionObjectList::read()
    in file db/functionObjects/functionObjectList/functionObjectList.C at line 1035
    Reading "system/controlDict" at line 2 to 41
    Entry 'deltaTurb' is not a dictionary
--> FOAM Warning : 
    From bool Foam::functionObjectList::read()
    in file db/functionObjects/functionObjectList/functionObjectList.C at line 1035
    Reading "system/controlDict" at line 2 to 41
    Entry 'dt' is not a dictionary
--> FOAM Warning : 
    From bool Foam::functionObjectList::read()
    in file db/functionObjects/functionObjectList/functionObjectList.C at line 1035
    Reading "system/controlDict" at line 2 to 41
    Entry 'tAvg' is not a dictionary
--> FOAM Warning : 
    From bool Foam::functionObjectList::read()
    in file db/functionObjects/functionObjectList/functionObjectList.C at line 1035
    Reading "system/controlDict" at line 2 to 41
    Entry 'tEnd' is not a dictionary
--> FOAM Warning : 
    From bool Foam::functionObjectList::read()
    in file db/functionObjects/functionObjectList/functionObjectList.C at line 1035
    Reading "system/controlDict" at line 2 to 41
    Entry 'writeInterval_' is not a dictionary
--> FOAM Warning : 
    From bool Foam::functionObjectList::read()
    in file db/functionObjects/functionObjectList/functionObjectList.C at line 1035
    Reading "system/controlDict" at line 2 to 41
    Entry 'nCores' is not a dictionary
--> FOAM Warning : 
    From bool Foam::functionObjectList::read()
    in file db/functionObjects/functionObjectList/functionObjectList.C at line 1035
    Reading "system/controlDict" at line 2 to 41
    Entry 'interpScheme' is not a dictionary
--> FOAM Warning : 
    From bool Foam::functionObjectList::read()
    in file db/functionObjects/functionObjectList/functionObjectList.C at line 1035
    Reading "system/controlDict" at line 2 to 41
    Entry 'probeField' is not a dictionary
wallShearStress wallShearStress:
    processing wall patches: 
        Windsor_Body
        CFDWT_Floor
        Windsor_Pins
        Windsor_Base
        Windsor_Body_2
        CFDWT_Floor_2
        Windsor_Pins_2
        Windsor_Base_2

pressure calc_cp:
    Operating mode: staticCoeff
    Not including hydrostatic effects

forceCoeffs forceCoeffsAll:
    rho: rhoInf
    Freestream density (rhoInf) set to 1
    Not including porosity effects
    magUInf: 40
    lRef   : 0.6375
    Aref   : 0.1124
    rhoInf : 1
    Selecting all coefficients
    - Drag force: Cd
    - Drag force front: Cd(f)
    - Drag force rear: Cd(r)
    - Lift force: Cl
    - Lift force front: Cl(f)
    - Lift force rear: Cl(r)
    - Pitch moment: CmPitch
    - Roll moment: CmRoll
    - Yaw moment: CmYaw
    - Side force: Cs
    - Side force front: Cs(f)
    - Side force rear: Cs(r)


forceCoeffs dragCoeffBase:
    rho: rhoInf
    Freestream density (rhoInf) set to 1
    Not including porosity effects
    magUInf: 40
    lRef   : 0.6375
    Aref   : 0.1124
    rhoInf : 1
    Selecting coefficients:
    - Drag force: Cd


Time = 1

velocityDampingConstraint velocityDamping damped 0 (0%) of cells, with max limit 300
[INFO] MatrixAssemblyU: 1130.128 [ms]
smoothSolver:  Solving for Ux, Initial residual = 0.9999999999991107, Final residual = 0.08730376106487635, No Iterations 15
smoothSolver:  Solving for Uy, Initial residual = 1, Final residual = 0.08968718090901757, No Iterations 31
smoothSolver:  Solving for Uz, Initial residual = 1, Final residual = 0.03285812037166155, No Iterations 2
[INFO] MomentumPredictor: 1073.997 [ms]
[INFO] MatrixAssemblyPI: 170.678 [ms]
[INFO] MatrixAssemblyPII: 84.81699999999999 [ms]
GAMG:  Solving for p, Initial residual = 1, Final residual = 0.008753841962482819, No Iterations 25
[INFO] SolveP: 2675.677 [ms]
time step continuity errors : sum local = 0.003211831366585345, global = 1.759603051363264e-05, cumulative = 1.759603051363264e-05
[INFO] postSolveP: 45.377 [ms]
smoothSolver:  Solving for nuTilda, Initial residual = 0.9999999972963511, Final residual = 0.0642999754327117, No Iterations 3
[INFO] TimeStep: 5838.47 [ms]
ExecutionTime = 22.02 s  ClockTime = 22 s

--> FOAM Warning : 
    From virtual bool Foam::functionObjects::fieldSelection::checkSelection()
    in file functionObjects/fieldSelections/fieldSelection/fieldSelection.C at line 166
    Field k not found
--> FOAM Warning : 
    From virtual bool Foam::functionObjects::fieldSelection::checkSelection()
    in file functionObjects/fieldSelections/fieldSelection/fieldSelection.C at line 166
    Field gammaInt not found
--> FOAM Warning : 
    From virtual bool Foam::functionObjects::fieldSelection::checkSelection()
    in file functionObjects/fieldSelections/fieldSelection/fieldSelection.C at line 166
    Field omega not found
--> FOAM Warning : 
    From virtual bool Foam::functionObjects::fieldSelection::checkSelection()
    in file functionObjects/fieldSelections/fieldSelection/fieldSelection.C at line 166
    Field ReThetat not found
--> FOAM Warning : 
    From virtual bool Foam::functionObjects::fieldSelection::checkSelection()
    in file functionObjects/fieldSelections/fieldSelection/fieldSelection.C at line 166
    Field epsilon not found
--> FOAM Warning : 
    From virtual bool Foam::functionObjects::solverFieldSelection::updateSelection()
    in file functionObjects/fieldSelections/solverFieldSelection/solverFieldSelection.C at line 85
    Valid solver fields are: 3(U nuTilda p)Time = 2

velocityDampingConstraint velocityDamping damped 0 (0%) of cells, with max limit 300
[INFO] MatrixAssemblyU: 1074.216 [ms]
smoothSolver:  Solving for Ux, Initial residual = 0.2130501571163809, Final residual = 0.01840747693415828, No Iterations 13
smoothSolver:  Solving for Uy, Initial residual = 0.3547373803280675, Final residual = 0.0331222908022569, No Iterations 13
smoothSolver:  Solving for Uz, Initial residual = 0.3289721045065373, Final residual = 0.02812898512391693, No Iterations 13
[INFO] MomentumPredictor: 896.365 [ms]
[INFO] MatrixAssemblyPI: 171.355 [ms]
[INFO] MatrixAssemblyPII: 84.575 [ms]
GAMG:  Solving for p, Initial residual = 0.2100528785493712, Final residual = 0.002007068754783788, No Iterations 12
[INFO] SolveP: 1141.168 [ms]
time step continuity errors : sum local = 0.04107597764427788, global = -0.0003089637947417433, cumulative = -0.0002913677642281107
[INFO] postSolveP: 44.803 [ms]
smoothSolver:  Solving for nuTilda, Initial residual = 0.4059752268728173, Final residual = 0.02532394671058745, No Iterations 1
[INFO] TimeStep: 4043.217 [ms]
ExecutionTime = 26.91 s  ClockTime = 27 s

Time = 3

velocityDampingConstraint velocityDamping damped 1662 (0.01%) of cells, with max limit 300
[INFO] MatrixAssemblyU: 1100.364 [ms]
smoothSolver:  Solving for Ux, Initial residual = 0.1260533532658735, Final residual = 0.01201653486896304, No Iterations 9
smoothSolver:  Solving for Uy, Initial residual = 0.2048842835751014, Final residual = 0.02003867507498748, No Iterations 10
smoothSolver:  Solving for Uz, Initial residual = 0.2160100633327616, Final residual = 0.02146413336072854, No Iterations 9
[INFO] MomentumPredictor: 683.277 [ms]
[INFO] MatrixAssemblyPI: 169.857 [ms]
[INFO] MatrixAssemblyPII: 85.069 [ms]
GAMG:  Solving for p, Initial residual = 0.1072372874248162, Final residual = 0.0009487405011433564, No Iterations 10
[INFO] SolveP: 960.062 [ms]
time step continuity errors : sum local = 0.01162984902481042, global = -0.0001269146527224167, cumulative = -0.0004182824169505274
[INFO] postSolveP: 44.801 [ms]
smoothSolver:  Solving for nuTilda, Initial residual = 0.208380728736712, Final residual = 0.01316111873931854, No Iterations 2
[INFO] TimeStep: 3692.209 [ms]
ExecutionTime = 31.47 s  ClockTime = 31 s

Time = 4

velocityDampingConstraint velocityDamping damped 0 (0%) of cells, with max limit 300
[INFO] MatrixAssemblyU: 1102.224 [ms]
smoothSolver:  Solving for Ux, Initial residual = 0.0541164073875905, Final residual = 0.004909892693827666, No Iterations 11
smoothSolver:  Solving for Uy, Initial residual = 0.1218067472203435, Final residual = 0.01068522286929528, No Iterations 11
smoothSolver:  Solving for Uz, Initial residual = 0.1314803874614513, Final residual = 0.01266957935984853, No Iterations 10
[INFO] MomentumPredictor: 762.544 [ms]
[INFO] MatrixAssemblyPI: 170.253 [ms]
[INFO] MatrixAssemblyPII: 84.58199999999999 [ms]
GAMG:  Solving for p, Initial residual = 0.1462011431915971, Final residual = 0.001120565215124068, No Iterations 7
[INFO] SolveP: 687.255 [ms]
time step continuity errors : sum local = 0.01032888596681399, global = 0.0001415964532556397, cumulative = -0.0002766859636948877
[INFO] postSolveP: 45.036 [ms]
smoothSolver:  Solving for nuTilda, Initial residual = 0.1247308330567235, Final residual = 0.01049605905331634, No Iterations 2
[INFO] TimeStep: 3498.043 [ms]
ExecutionTime = 35.84 s  ClockTime = 36 s

Time = 5

velocityDampingConstraint velocityDamping damped 229 (0%) of cells, with max limit 300
[INFO] MatrixAssemblyU: 1093.138 [ms]
smoothSolver:  Solving for Ux, Initial residual = 0.04399078429950164, Final residual = 0.004193961286517445, No Iterations 10
smoothSolver:  Solving for Uy, Initial residual = 0.09710548820860447, Final residual = 0.009059668441818687, No Iterations 11
smoothSolver:  Solving for Uz, Initial residual = 0.1135866326149918, Final residual = 0.01116258583859257, No Iterations 10
[INFO] MomentumPredictor: 742.704 [ms]
[INFO] MatrixAssemblyPI: 170.402 [ms]
[INFO] MatrixAssemblyPII: 84.98699999999999 [ms]
GAMG:  Solving for p, Initial residual = 0.1108572593531803, Final residual = 0.001099397038175258, No Iterations 7
[INFO] SolveP: 688.297 [ms]
time step continuity errors : sum local = 0.00761783568880073, global = 0.000201062504427312, cumulative = -7.562345926757574e-05
[INFO] postSolveP: 44.802 [ms]
smoothSolver:  Solving for nuTilda, Initial residual = 0.07085325572023367, Final residual = 0.004311113626586582, No Iterations 3
[INFO] TimeStep: 3486.768 [ms]
ExecutionTime = 40.2 s  ClockTime = 40 s

Time = 6

velocityDampingConstraint velocityDamping damped 0 (0%) of cells, with max limit 300
[INFO] MatrixAssemblyU: 1087.618 [ms]
smoothSolver:  Solving for Ux, Initial residual = 0.0299668719949821, Final residual = 0.002666685833296488, No Iterations 12
smoothSolver:  Solving for Uy, Initial residual = 0.0747577340992093, Final residual = 0.006911759266410396, No Iterations 12
smoothSolver:  Solving for Uz, Initial residual = 0.08146481344446752, Final residual = 0.006981677681094088, No Iterations 12
[INFO] MomentumPredictor: 838.386 [ms]
[INFO] MatrixAssemblyPI: 170.104 [ms]
[INFO] MatrixAssemblyPII: 84.67400000000001 [ms]
GAMG:  Solving for p, Initial residual = 0.09347275996149736, Final residual = 0.0007109535423596518, No Iterations 7
[INFO] SolveP: 687.682 [ms]
time step continuity errors : sum local = 0.005395488984954492, global = 3.786124986735583e-05, cumulative = -3.776220940021992e-05
[INFO] postSolveP: 44.989 [ms]
smoothSolver:  Solving for nuTilda, Initial residual = 0.06425056534496713, Final residual = 0.003001444815663484, No Iterations 3
[INFO] TimeStep: 3572.259 [ms]
ExecutionTime = 44.63 s  ClockTime = 44 s

Time = 7

velocityDampingConstraint velocityDamping damped 26 (0%) of cells, with max limit 300
[INFO] MatrixAssemblyU: 1083.507 [ms]
smoothSolver:  Solving for Ux, Initial residual = 0.02718523262473276, Final residual = 0.002427327672702409, No Iterations 12
smoothSolver:  Solving for Uy, Initial residual = 0.06791092937985435, Final residual = 0.006455040719976261, No Iterations 12
smoothSolver:  Solving for Uz, Initial residual = 0.0715854399063066, Final residual = 0.006278875364983251, No Iterations 12
[INFO] MomentumPredictor: 837.4 [ms]
[INFO] MatrixAssemblyPI: 170.213 [ms]
[INFO] MatrixAssemblyPII: 84.69199999999999 [ms]
GAMG:  Solving for p, Initial residual = 0.07975431281927711, Final residual = 0.0006519360736877593, No Iterations 6
[INFO] SolveP: 594.274 [ms]
time step continuity errors : sum local = 0.004961094987774003, global = -4.603469051822437e-05, cumulative = -8.379689991844428e-05
[INFO] postSolveP: 44.668 [ms]
smoothSolver:  Solving for nuTilda, Initial residual = 0.04909929232164099, Final residual = 0.00322950010855692, No Iterations 3
[INFO] TimeStep: 3473.773 [ms]
ExecutionTime = 48.95 s  ClockTime = 49 s

Time = 8

velocityDampingConstraint velocityDamping damped 0 (0%) of cells, with max limit 300
[INFO] MatrixAssemblyU: 1078.5 [ms]
smoothSolver:  Solving for Ux, Initial residual = 0.02308649388109767, Final residual = 0.002140540742924185, No Iterations 12
smoothSolver:  Solving for Uy, Initial residual = 0.06029444614463252, Final residual = 0.005937847532914643, No Iterations 12
smoothSolver:  Solving for Uz, Initial residual = 0.06213895056909999, Final residual = 0.005636604344071387, No Iterations 12
[INFO] MomentumPredictor: 837.282 [ms]
[INFO] MatrixAssemblyPI: 169.984 [ms]
[INFO] MatrixAssemblyPII: 84.633 [ms]
GAMG:  Solving for p, Initial residual = 0.07271963107921224, Final residual = 0.0005079972290774272, No Iterations 6
[INFO] SolveP: 595.956 [ms]
time step continuity errors : sum local = 0.003909032226917491, global = -3.541533188252124e-05, cumulative = -0.0001192122318009655
[INFO] postSolveP: 44.794 [ms]
smoothSolver:  Solving for nuTilda, Initial residual = 0.06540604655841563, Final residual = 0.005857001201928756, No Iterations 2
[INFO] TimeStep: 3449.338 [ms]
ExecutionTime = 53.24 s  ClockTime = 53 s

Time = 9

velocityDampingConstraint velocityDamping damped 0 (0%) of cells, with max limit 300
[INFO] MatrixAssemblyU: 1077.358 [ms]
smoothSolver:  Solving for Ux, Initial residual = 0.02038159210440549, Final residual = 0.001902009762756212, No Iterations 12
smoothSolver:  Solving for Uy, Initial residual = 0.05442342607560499, Final residual = 0.005436823524811002, No Iterations 12
smoothSolver:  Solving for Uz, Initial residual = 0.05527384725985802, Final residual = 0.005135813477681315, No Iterations 12
[INFO] MomentumPredictor: 837.364 [ms]
[INFO] MatrixAssemblyPI: 170.548 [ms]
[INFO] MatrixAssemblyPII: 84.889 [ms]
GAMG:  Solving for p, Initial residual = 0.06729747595612837, Final residual = 0.0006342755803153298, No Iterations 5
[INFO] SolveP: 505.176 [ms]
time step continuity errors : sum local = 0.004872099392653261, global = -2.652768488030008e-05, cumulative = -0.0001457399166812656
[INFO] postSolveP: 44.63 [ms]
smoothSolver:  Solving for nuTilda, Initial residual = 0.04412810831591847, Final residual = 0.003200745670697582, No Iterations 3
[INFO] TimeStep: 3377.297 [ms]
ExecutionTime = 57.47 s  ClockTime = 57 s

Time = 10

velocityDampingConstraint velocityDamping damped 0 (0%) of cells, with max limit 300
[INFO] MatrixAssemblyU: 1078.615 [ms]
smoothSolver:  Solving for Ux, Initial residual = 0.01833738940592983, Final residual = 0.001726755311261776, No Iterations 12
smoothSolver:  Solving for Uy, Initial residual = 0.05021385914702312, Final residual = 0.005003071828487568, No Iterations 12
smoothSolver:  Solving for Uz, Initial residual = 0.05054262033855036, Final residual = 0.004764830152054268, No Iterations 12
[INFO] MomentumPredictor: 836.2670000000001 [ms]
[INFO] MatrixAssemblyPI: 170.417 [ms]
[INFO] MatrixAssemblyPII: 84.545 [ms]
GAMG:  Solving for p, Initial residual = 0.06161857585604739, Final residual = 0.0006049419529751411, No Iterations 5
[INFO] SolveP: 506.069 [ms]
time step continuity errors : sum local = 0.004600913264782595, global = 1.423420511556519e-05, cumulative = -0.0001315057115657004
[INFO] postSolveP: 44.824 [ms]
smoothSolver:  Solving for nuTilda, Initial residual = 0.06977456038001471, Final residual = 0.005484840316683575, No Iterations 2
[INFO] TimeStep: 3357.975 [ms]
ExecutionTime = 61.68 s  ClockTime = 62 s

Time = 11

velocityDampingConstraint velocityDamping damped 0 (0%) of cells, with max limit 300
[INFO] MatrixAssemblyU: 1075.822 [ms]
smoothSolver:  Solving for Ux, Initial residual = 0.01669853020408592, Final residual = 0.001604837245166364, No Iterations 12
smoothSolver:  Solving for Uy, Initial residual = 0.0474410288020989, Final residual = 0.004690724852757643, No Iterations 12
smoothSolver:  Solving for Uz, Initial residual = 0.0473744725982335, Final residual = 0.004494886825015233, No Iterations 12
[INFO] MomentumPredictor: 839.841 [ms]
[INFO] MatrixAssemblyPI: 170.224 [ms]
[INFO] MatrixAssemblyPII: 85.006 [ms]
GAMG:  Solving for p, Initial residual = 0.05708679992209114, Final residual = 0.0003609461063477325, No Iterations 6
[INFO] SolveP: 593.261 [ms]
time step continuity errors : sum local = 0.002763345708649391, global = 2.564110175822705e-05, cumulative = -0.0001058646098074733
[INFO] postSolveP: 44.868 [ms]
smoothSolver:  Solving for nuTilda, Initial residual = 0.03912319377951371, Final residual = 0.0030261409088502, No Iterations 3
[INFO] TimeStep: 3465.796 [ms]
ExecutionTime = 65.98999999999999 s  ClockTime = 66 s

Time = 12

velocityDampingConstraint velocityDamping damped 0 (0%) of cells, with max limit 300
[INFO] MatrixAssemblyU: 1075.197 [ms]
smoothSolver:  Solving for Ux, Initial residual = 0.01557458050548158, Final residual = 0.001519442321954028, No Iterations 12
smoothSolver:  Solving for Uy, Initial residual = 0.04542349885574548, Final residual = 0.00446088516377482, No Iterations 12
smoothSolver:  Solving for Uz, Initial residual = 0.044949130663627, Final residual = 0.004285003796196173, No Iterations 12
[INFO] MomentumPredictor: 835.388 [ms]
[INFO] MatrixAssemblyPI: 170.488 [ms]
[INFO] MatrixAssemblyPII: 84.58 [ms]
GAMG:  Solving for p, Initial residual = 0.05300826816202108, Final residual = 0.0003321887545081938, No Iterations 6
[INFO] SolveP: 595.424 [ms]
time step continuity errors : sum local = 0.002562942647718405, global = 3.364070661683407e-05, cumulative = -7.222390319063928e-05
[INFO] postSolveP: 44.811 [ms]
smoothSolver:  Solving for nuTilda, Initial residual = 0.06554148918094903, Final residual = 0.005099780375737993, No Iterations 2
[INFO] TimeStep: 3442.158 [ms]
ExecutionTime = 70.28 s  ClockTime = 70 s

Time = 13

velocityDampingConstraint velocityDamping damped 0 (0%) of cells, with max limit 300
[INFO] MatrixAssemblyU: 1073.319 [ms]
smoothSolver:  Solving for Ux, Initial residual = 0.01453764445797127, Final residual = 0.001444548484393449, No Iterations 12
smoothSolver:  Solving for Uy, Initial residual = 0.04350686122063435, Final residual = 0.004263752781955118, No Iterations 12
smoothSolver:  Solving for Uz, Initial residual = 0.04309199042940229, Final residual = 0.004136425005583232, No Iterations 12
[INFO] MomentumPredictor: 838.624 [ms]
[INFO] MatrixAssemblyPI: 170.721 [ms]
[INFO] MatrixAssemblyPII: 84.84099999999999 [ms]
GAMG:  Solving for p, Initial residual = 0.049742241467418, Final residual = 0.0003193387629048969, No Iterations 6
[INFO] SolveP: 597.783 [ms]
time step continuity errors : sum local = 0.002479261425242436, global = 2.49218565978513e-05, cumulative = -4.730204659278798e-05
[INFO] postSolveP: 44.862 [ms]
smoothSolver:  Solving for nuTilda, Initial residual = 0.03468475275949285, Final residual = 0.002829050227029762, No Iterations 3
[INFO] TimeStep: 3466.415 [ms]
ExecutionTime = 74.59 s  ClockTime = 75 s

Time = 14

velocityDampingConstraint velocityDamping damped 0 (0%) of cells, with max limit 300
[INFO] MatrixAssemblyU: 1072.695 [ms]
smoothSolver:  Solving for Ux, Initial residual = 0.01370244121703013, Final residual = 0.001172862919969902, No Iterations 13
smoothSolver:  Solving for Uy, Initial residual = 0.04167986680988119, Final residual = 0.004094766737528841, No Iterations 12
smoothSolver:  Solving for Uz, Initial residual = 0.04204837068110689, Final residual = 0.004056285944566688, No Iterations 12
[INFO] MomentumPredictor: 855.537 [ms]
[INFO] MatrixAssemblyPI: 170.101 [ms]
[INFO] MatrixAssemblyPII: 84.821 [ms]
GAMG:  Solving for p, Initial residual = 0.04731420830416394, Final residual = 0.0003043462934008837, No Iterations 6
[INFO] SolveP: 595.638 [ms]
time step continuity errors : sum local = 0.002373424911308247, global = 1.467823553469972e-05, cumulative = -3.262381105808826e-05
[INFO] postSolveP: 44.878 [ms]
smoothSolver:  Solving for nuTilda, Initial residual = 0.05812589092756539, Final residual = 0.004799986505269594, No Iterations 2
[INFO] TimeStep: 3459.181 [ms]
ExecutionTime = 78.90000000000001 s  ClockTime = 79 s

Time = 15

velocityDampingConstraint velocityDamping damped 0 (0%) of cells, with max limit 300
[INFO] MatrixAssemblyU: 1072.689 [ms]
smoothSolver:  Solving for Ux, Initial residual = 0.01283366399963811, Final residual = 0.001109865669005672, No Iterations 13
smoothSolver:  Solving for Uy, Initial residual = 0.04024777591832802, Final residual = 0.003980039928545688, No Iterations 12
smoothSolver:  Solving for Uz, Initial residual = 0.04168499766411043, Final residual = 0.004045854739594253, No Iterations 12
[INFO] MomentumPredictor: 858.229 [ms]
[INFO] MatrixAssemblyPI: 170.004 [ms]
[INFO] MatrixAssemblyPII: 84.61499999999999 [ms]
GAMG:  Solving for p, Initial residual = 0.04571218748408381, Final residual = 0.0003009093932870747, No Iterations 6
[INFO] SolveP: 595.177 [ms]
time step continuity errors : sum local = 0.00235767178513398, global = -1.143110234741e-07, cumulative = -3.273812208156236e-05
[INFO] postSolveP: 44.951 [ms]
smoothSolver:  Solving for nuTilda, Initial residual = 0.03130793314693679, Final residual = 0.002662146073591776, No Iterations 3
[INFO] TimeStep: 3479.625 [ms]
ExecutionTime = 83.22 s  ClockTime = 83 s

Time = 16

velocityDampingConstraint velocityDamping damped 0 (0%) of cells, with max limit 300
[INFO] MatrixAssemblyU: 1071.955 [ms]
smoothSolver:  Solving for Ux, Initial residual = 0.01219312471339192, Final residual = 0.001054129692210796, No Iterations 13
smoothSolver:  Solving for Uy, Initial residual = 0.03932322957755609, Final residual = 0.00390801645283837, No Iterations 12
smoothSolver:  Solving for Uz, Initial residual = 0.04160527157798279, Final residual = 0.004050019492014441, No Iterations 12
[INFO] MomentumPredictor: 857.071 [ms]
[INFO] MatrixAssemblyPI: 170.991 [ms]
[INFO] MatrixAssemblyPII: 84.65900000000001 [ms]
GAMG:  Solving for p, Initial residual = 0.04441294648188818, Final residual = 0.0002941070824743487, No Iterations 6
[INFO] SolveP: 594.705 [ms]
time step continuity errors : sum local = 0.002312576947294028, global = -1.006023852589762e-05, cumulative = -4.279836060745998e-05
[INFO] postSolveP: 44.628 [ms]
smoothSolver:  Solving for nuTilda, Initial residual = 0.05168021162758568, Final residual = 0.004551244845667743, No Iterations 2
[INFO] TimeStep: 3458.232 [ms]
ExecutionTime = 87.52 s  ClockTime = 88 s

Time = 17

velocityDampingConstraint velocityDamping damped 0 (0%) of cells, with max limit 300
[INFO] MatrixAssemblyU: 1074.296 [ms]
smoothSolver:  Solving for Ux, Initial residual = 0.0115715648142715, Final residual = 0.001005529769349324, No Iterations 13
smoothSolver:  Solving for Uy, Initial residual = 0.03877847493504835, Final residual = 0.003875769178241577, No Iterations 12
smoothSolver:  Solving for Uz, Initial residual = 0.04155364279929601, Final residual = 0.004053399787389105, No Iterations 12
[INFO] MomentumPredictor: 855.696 [ms]
[INFO] MatrixAssemblyPI: 170.121 [ms]
[INFO] MatrixAssemblyPII: 84.658 [ms]
GAMG:  Solving for p, Initial residual = 0.04392127197366402, Final residual = 0.0002961969200578592, No Iterations 6
[INFO] SolveP: 594.051 [ms]
time step continuity errors : sum local = 0.002343307790557611, global = -1.631889379623421e-05, cumulative = -5.911725440369419e-05
[INFO] postSolveP: 44.729 [ms]
smoothSolver:  Solving for nuTilda, Initial residual = 0.02882433063389788, Final residual = 0.002513308233982745, No Iterations 3
[INFO] TimeStep: 3478.033 [ms]
ExecutionTime = 91.83 s  ClockTime = 92 s

Time = 18

velocityDampingConstraint velocityDamping damped 0 (0%) of cells, with max limit 300
[INFO] MatrixAssemblyU: 1068.958 [ms]
smoothSolver:  Solving for Ux, Initial residual = 0.0112246845064692, Final residual = 0.000965587448985331, No Iterations 13
smoothSolver:  Solving for Uy, Initial residual = 0.03863744964696778, Final residual = 0.003304004660755421, No Iterations 13
smoothSolver:  Solving for Uz, Initial residual = 0.0417448497614231, Final residual = 0.004057584184360062, No Iterations 12
[INFO] MomentumPredictor: 874.316 [ms]
[INFO] MatrixAssemblyPI: 170.399 [ms]
[INFO] MatrixAssemblyPII: 84.61799999999999 [ms]
GAMG:  Solving for p, Initial residual = 0.04380736304712794, Final residual = 0.0002942555397991286, No Iterations 6
[INFO] SolveP: 600.04 [ms]
time step continuity errors : sum local = 0.00234308565067888, global = -1.129448839562195e-05, cumulative = -7.041174279931614e-05
[INFO] postSolveP: 44.882 [ms]
smoothSolver:  Solving for nuTilda, Initial residual = 0.04634691190914977, Final residual = 0.004300794002361692, No Iterations 2
[INFO] TimeStep: 3476.672 [ms]
ExecutionTime = 96.15000000000001 s  ClockTime = 96 s

Time = 19

velocityDampingConstraint velocityDamping damped 0 (0%) of cells, with max limit 300
[INFO] MatrixAssemblyU: 1068.63 [ms]
smoothSolver:  Solving for Ux, Initial residual = 0.01087315133973577, Final residual = 0.0009352939601200019, No Iterations 13
smoothSolver:  Solving for Uy, Initial residual = 0.03891104413554444, Final residual = 0.003322486731880009, No Iterations 13
smoothSolver:  Solving for Uz, Initial residual = 0.04251435314824265, Final residual = 0.004104721527845202, No Iterations 12
[INFO] MomentumPredictor: 878.601 [ms]
[INFO] MatrixAssemblyPI: 170.449 [ms]
[INFO] MatrixAssemblyPII: 84.768 [ms]
GAMG:  Solving for p, Initial residual = 0.04402148442789961, Final residual = 0.0002773221156737301, No Iterations 6
[INFO] SolveP: 594.433 [ms]
time step continuity errors : sum local = 0.002222490670510112, global = 1.182101126605804e-06, cumulative = -6.922964167271034e-05
[INFO] postSolveP: 45.057 [ms]
smoothSolver:  Solving for nuTilda, Initial residual = 0.02688469342040547, Final residual = 0.002364297434995897, No Iterations 3
[INFO] TimeStep: 3494.524 [ms]
ExecutionTime = 100.49 s  ClockTime = 101 s

Time = 20

velocityDampingConstraint velocityDamping damped 0 (0%) of cells, with max limit 300
[INFO] MatrixAssemblyU: 1067.427 [ms]
smoothSolver:  Solving for Ux, Initial residual = 0.01069738200404969, Final residual = 0.0009161042143241574, No Iterations 13
smoothSolver:  Solving for Uy, Initial residual = 0.03930041177993115, Final residual = 0.003921268164572117, No Iterations 12
smoothSolver:  Solving for Uz, Initial residual = 0.04313187710530237, Final residual = 0.00413882810084585, No Iterations 12
[INFO] MomentumPredictor: 855.8150000000001 [ms]
[INFO] MatrixAssemblyPI: 170.346 [ms]
[INFO] MatrixAssemblyPII: 84.696 [ms]
GAMG:  Solving for p, Initial residual = 0.04391812874873433, Final residual = 0.0002599407061310069, No Iterations 6
[INFO] SolveP: 596.496 [ms]
time step continuity errors : sum local = 0.002102165108956059, global = 1.309695304801625e-05, cumulative = -5.613268862469409e-05
[INFO] postSolveP: 44.719 [ms]
smoothSolver:  Solving for nuTilda, Initial residual = 0.04180725279705351, Final residual = 0.004047471067232505, No Iterations 2
[INFO] TimeStep: 3452.923 [ms]
ExecutionTime = 104.78 s  ClockTime = 105 s

Time = 21

velocityDampingConstraint velocityDamping damped 0 (0%) of cells, with max limit 300
[INFO] MatrixAssemblyU: 1068.764 [ms]
smoothSolver:  Solving for Ux, Initial residual = 0.01049080283992548, Final residual = 0.0009025239785999288, No Iterations 13
smoothSolver:  Solving for Uy, Initial residual = 0.03992626984368299, Final residual = 0.00396977496697491, No Iterations 12
smoothSolver:  Solving for Uz, Initial residual = 0.0434629784668561, Final residual = 0.004136956427448368, No Iterations 12
[INFO] MomentumPredictor: 855.752 [ms]
[INFO] MatrixAssemblyPI: 169.923 [ms]
[INFO] MatrixAssemblyPII: 84.917 [ms]
GAMG:  Solving for p, Initial residual = 0.0439088513298845, Final residual = 0.0004379223005649541, No Iterations 5
[INFO] SolveP: 505.065 [ms]
time step continuity errors : sum local = 0.003587550063474191, global = 1.868464579500782e-05, cumulative = -3.744804282968627e-05
[INFO] postSolveP: 44.689 [ms]
smoothSolver:  Solving for nuTilda, Initial residual = 0.02512257212399216, Final residual = 0.002219093560079796, No Iterations 3
[INFO] TimeStep: 3381.868 [ms]
ExecutionTime = 109 s  ClockTime = 109 s

Time = 22

velocityDampingConstraint velocityDamping damped 0 (0%) of cells, with max limit 300
[INFO] MatrixAssemblyU: 1067.335 [ms]
smoothSolver:  Solving for Ux, Initial residual = 0.01046082827388808, Final residual = 0.001045598880279816, No Iterations 12
smoothSolver:  Solving for Uy, Initial residual = 0.04056682309557088, Final residual = 0.003993260659253334, No Iterations 12
smoothSolver:  Solving for Uz, Initial residual = 0.04340858348573277, Final residual = 0.004094999470592813, No Iterations 12
[INFO] MomentumPredictor: 835.347 [ms]
[INFO] MatrixAssemblyPI: 170.42 [ms]
[INFO] MatrixAssemblyPII: 85.009 [ms]
GAMG:  Solving for p, Initial residual = 0.04377400184678382, Final residual = 0.0003004916711456034, No Iterations 6
[INFO] SolveP: 596.615 [ms]
time step continuity errors : sum local = 0.002492290216342128, global = 2.578091295805986e-05, cumulative = -1.166712987162641e-05
[INFO] postSolveP: 44.98 [ms]
smoothSolver:  Solving for nuTilda, Initial residual = 0.03794447474497894, Final residual = 0.002018904906100102, No Iterations 3
[INFO] TimeStep: 3452.04 [ms]
ExecutionTime = 113.29 s  ClockTime = 113 s

Time = 23

velocityDampingConstraint velocityDamping damped 0 (0%) of cells, with max limit 300
[INFO] MatrixAssemblyU: 1067.297 [ms]
smoothSolver:  Solving for Ux, Initial residual = 0.01034801130125692, Final residual = 0.000885132436317586, No Iterations 13
smoothSolver:  Solving for Uy, Initial residual = 0.04113521289679564, Final residual = 0.003992805121526223, No Iterations 12
smoothSolver:  Solving for Uz, Initial residual = 0.04297835515067983, Final residual = 0.004010767328004044, No Iterations 12
[INFO] MomentumPredictor: 857.2670000000001 [ms]
[INFO] MatrixAssemblyPI: 170.271 [ms]
[INFO] MatrixAssemblyPII: 84.669 [ms]
GAMG:  Solving for p, Initial residual = 0.04336722367406133, Final residual = 0.0002968061448018887, No Iterations 6
[INFO] SolveP: 594.302 [ms]
time step continuity errors : sum local = 0.002507012950274242, global = 3.038155508360674e-05, cumulative = 1.871442521198034e-05
[INFO] postSolveP: 44.684 [ms]
smoothSolver:  Solving for nuTilda, Initial residual = 0.02333344882176186, Final residual = 0.002087804297999741, No Iterations 3
[INFO] TimeStep: 3470.242 [ms]
ExecutionTime = 117.6 s  ClockTime = 118 s

Time = 24

velocityDampingConstraint velocityDamping damped 0 (0%) of cells, with max limit 300
[INFO] MatrixAssemblyU: 1066.788 [ms]
smoothSolver:  Solving for Ux, Initial residual = 0.01036496713460792, Final residual = 0.001030934829763748, No Iterations 12
smoothSolver:  Solving for Uy, Initial residual = 0.0418509684001161, Final residual = 0.004032125240668348, No Iterations 12
smoothSolver:  Solving for Uz, Initial residual = 0.04254540183950906, Final residual = 0.003935671365401665, No Iterations 12
[INFO] MomentumPredictor: 839.105 [ms]
[INFO] MatrixAssemblyPI: 170.189 [ms]
[INFO] MatrixAssemblyPII: 84.548 [ms]
GAMG:  Solving for p, Initial residual = 0.04295519028941194, Final residual = 0.0002883264595298205, No Iterations 6
[INFO] SolveP: 595.9059999999999 [ms]
time step continuity errors : sum local = 0.002475792157202989, global = 3.149433887284228e-05, cumulative = 5.020876408482262e-05
[INFO] postSolveP: 44.691 [ms]
smoothSolver:  Solving for nuTilda, Initial residual = 0.03444677340763322, Final residual = 0.00190961656159877, No Iterations 3
[INFO] TimeStep: 3452.907 [ms]
ExecutionTime = 121.89 s  ClockTime = 122 s

Time = 25

velocityDampingConstraint velocityDamping damped 0 (0%) of cells, with max limit 300
[INFO] MatrixAssemblyU: 1066.403 [ms]
smoothSolver:  Solving for Ux, Initial residual = 0.01030253545781456, Final residual = 0.0008814692740990675, No Iterations 13
smoothSolver:  Solving for Uy, Initial residual = 0.04268852226205956, Final residual = 0.00412469104973425, No Iterations 12
smoothSolver:  Solving for Uz, Initial residual = 0.04229324338801541, Final residual = 0.003902042953558317, No Iterations 12
[INFO] MomentumPredictor: 857.851 [ms]
[INFO] MatrixAssemblyPI: 170.073 [ms]
[INFO] MatrixAssemblyPII: 84.65600000000001 [ms]
GAMG:  Solving for p, Initial residual = 0.04229131825678089, Final residual = 0.0002865436305235853, No Iterations 6
[INFO] SolveP: 595.343 [ms]
time step continuity errors : sum local = 0.002503244225671934, global = 3.59997934113108e-05, cumulative = 8.620855749613342e-05
[INFO] postSolveP: 44.846 [ms]
smoothSolver:  Solving for nuTilda, Initial residual = 0.02149440552661282, Final residual = 0.00195659863470283, No Iterations 3
[INFO] TimeStep: 3470.639 [ms]
ExecutionTime = 126.19 s  ClockTime = 126 s

Time = 26

velocityDampingConstraint velocityDamping damped 0 (0%) of cells, with max limit 300
[INFO] MatrixAssemblyU: 1066.863 [ms]
smoothSolver:  Solving for Ux, Initial residual = 0.01037429325188195, Final residual = 0.001033773121478984, No Iterations 12
smoothSolver:  Solving for Uy, Initial residual = 0.04362693652111656, Final residual = 0.004274560975352244, No Iterations 12
smoothSolver:  Solving for Uz, Initial residual = 0.04229000919879177, Final residual = 0.003946064386632927, No Iterations 12
[INFO] MomentumPredictor: 835.8150000000001 [ms]
[INFO] MatrixAssemblyPI: 170.576 [ms]
[INFO] MatrixAssemblyPII: 84.464 [ms]
GAMG:  Solving for p, Initial residual = 0.0418527829968053, Final residual = 0.000300137267228352, No Iterations 6
[INFO] SolveP: 594.585 [ms]
time step continuity errors : sum local = 0.002656717333228562, global = 3.638109702194944e-05, cumulative = 0.0001225896545180828
[INFO] postSolveP: 44.569 [ms]
smoothSolver:  Solving for nuTilda, Initial residual = 0.03147795853661771, Final residual = 0.001803934203422412, No Iterations 3
[INFO] TimeStep: 3447.575 [ms]
ExecutionTime = 130.49 s  ClockTime = 131 s

Time = 27

velocityDampingConstraint velocityDamping damped 0 (0%) of cells, with max limit 300
[INFO] MatrixAssemblyU: 1068.214 [ms]
smoothSolver:  Solving for Ux, Initial residual = 0.01037309003984363, Final residual = 0.001035164386369821, No Iterations 12
smoothSolver:  Solving for Uy, Initial residual = 0.04465321906319857, Final residual = 0.00444219088913958, No Iterations 12
smoothSolver:  Solving for Uz, Initial residual = 0.042577606887014, Final residual = 0.004028306691170226, No Iterations 12
[INFO] MomentumPredictor: 840.804 [ms]
[INFO] MatrixAssemblyPI: 170.567 [ms]
[INFO] MatrixAssemblyPII: 84.512 [ms]
GAMG:  Solving for p, Initial residual = 0.04206214215398944, Final residual = 0.0003039767816899958, No Iterations 6
[INFO] SolveP: 594.172 [ms]
time step continuity errors : sum local = 0.002727809808773574, global = 3.922803551460457e-05, cumulative = 0.0001618176900326874
[INFO] postSolveP: 45.292 [ms]
smoothSolver:  Solving for nuTilda, Initial residual = 0.0198210351343623, Final residual = 0.001831289472785607, No Iterations 3
[INFO] TimeStep: 3454.601 [ms]
ExecutionTime = 134.78 s  ClockTime = 135 s

Time = 28

velocityDampingConstraint velocityDamping damped 0 (0%) of cells, with max limit 300
[INFO] MatrixAssemblyU: 1064.804 [ms]
smoothSolver:  Solving for Ux, Initial residual = 0.01051672833171727, Final residual = 0.001038624241383983, No Iterations 12
smoothSolver:  Solving for Uy, Initial residual = 0.04600707525459495, Final residual = 0.003942358117622803, No Iterations 13
smoothSolver:  Solving for Uz, Initial residual = 0.04357818169304325, Final residual = 0.004139583708006512, No Iterations 12
[INFO] MomentumPredictor: 856.542 [ms]
[INFO] MatrixAssemblyPI: 169.921 [ms]
[INFO] MatrixAssemblyPII: 84.584 [ms]
GAMG:  Solving for p, Initial residual = 0.04293956781132215, Final residual = 0.0003043856717174724, No Iterations 6
[INFO] SolveP: 596.312 [ms]
time step continuity errors : sum local = 0.002769281526305995, global = 3.80375600556099e-05, cumulative = 0.0001998552500882973
[INFO] postSolveP: 44.79 [ms]
smoothSolver:  Solving for nuTilda, Initial residual = 0.02894394473595834, Final residual = 0.001697098771704742, No Iterations 3
[INFO] TimeStep: 3467.337 [ms]
ExecutionTime = 139.08 s  ClockTime = 139 s

Time = 29

velocityDampingConstraint velocityDamping damped 0 (0%) of cells, with max limit 300
[INFO] MatrixAssemblyU: 1065.495 [ms]
smoothSolver:  Solving for Ux, Initial residual = 0.01055461816341523, Final residual = 0.001040610502609611, No Iterations 12
smoothSolver:  Solving for Uy, Initial residual = 0.0475791974651853, Final residual = 0.004078393122217392, No Iterations 13
smoothSolver:  Solving for Uz, Initial residual = 0.0450103513770336, Final residual = 0.004279474579471435, No Iterations 12
[INFO] MomentumPredictor: 857.761 [ms]
[INFO] MatrixAssemblyPI: 169.994 [ms]
[INFO] MatrixAssemblyPII: 84.526 [ms]
GAMG:  Solving for p, Initial residual = 0.04390087463243244, Final residual = 0.0002985331380340152, No Iterations 6
[INFO] SolveP: 595.235 [ms]
time step continuity errors : sum local = 0.002752893458920807, global = 3.860701490450571e-05, cumulative = 0.000238462264992803
[INFO] postSolveP: 44.709 [ms]
smoothSolver:  Solving for nuTilda, Initial residual = 0.01833822662428404, Final residual = 0.001708065389184896, No Iterations 3
[INFO] TimeStep: 3469.49 [ms]
ExecutionTime = 143.39 s  ClockTime = 144 s

Time = 30

velocityDampingConstraint velocityDamping damped 0 (0%) of cells, with max limit 300
[INFO] MatrixAssemblyU: 1065.397 [ms]
smoothSolver:  Solving for Ux, Initial residual = 0.01074956641858411, Final residual = 0.001046956880202571, No Iterations 12
smoothSolver:  Solving for Uy, Initial residual = 0.04963891939145768, Final residual = 0.004224460421205643, No Iterations 13
smoothSolver:  Solving for Uz, Initial residual = 0.04659116634122739, Final residual = 0.004411568854782786, No Iterations 12
[INFO] MomentumPredictor: 854.567 [ms]
[INFO] MatrixAssemblyPI: 170.274 [ms]
[INFO] MatrixAssemblyPII: 84.58 [ms]
GAMG:  Solving for p, Initial residual = 0.04479888163048767, Final residual = 0.0002886763342123723, No Iterations 6
[INFO] SolveP: 595.547 [ms]
time step continuity errors : sum local = 0.002698883497887096, global = 3.561890713007021e-05, cumulative = 0.0002740811721228733
[INFO] postSolveP: 44.689 [ms]
smoothSolver:  Solving for nuTilda, Initial residual = 0.02675660905500379, Final residual = 0.001590200047052308, No Iterations 3
[INFO] TimeStep: 3466.281 [ms]
ExecutionTime = 147.68 s  ClockTime = 148 s

Time = 31

velocityDampingConstraint velocityDamping damped 0 (0%) of cells, with max limit 300
[INFO] MatrixAssemblyU: 1064.099 [ms]
smoothSolver:  Solving for Ux, Initial residual = 0.01082228888272673, Final residual = 0.00105356742588384, No Iterations 12
smoothSolver:  Solving for Uy, Initial residual = 0.0519711863031692, Final residual = 0.005168248957475799, No Iterations 12
smoothSolver:  Solving for Uz, Initial residual = 0.04829208186300363, Final residual = 0.004564782414682007, No Iterations 12
[INFO] MomentumPredictor: 836.684 [ms]
[INFO] MatrixAssemblyPI: 170.465 [ms]
[INFO] MatrixAssemblyPII: 84.446 [ms]
GAMG:  Solving for p, Initial residual = 0.0460152497160537, Final residual = 0.0002827341975459947, No Iterations 6
[INFO] SolveP: 592.754 [ms]
time step continuity errors : sum local = 0.002675440374375298, global = 3.528663956361669e-05, cumulative = 0.0003093678116864899
[INFO] postSolveP: 44.807 [ms]
smoothSolver:  Solving for nuTilda, Initial residual = 0.01707020153676134, Final residual = 0.001589712475828458, No Iterations 3
[INFO] TimeStep: 3444.563 [ms]
ExecutionTime = 151.97 s  ClockTime = 152 s

Time = 32

velocityDampingConstraint velocityDamping damped 0 (0%) of cells, with max limit 300
[INFO] MatrixAssemblyU: 1062.012 [ms]
smoothSolver:  Solving for Ux, Initial residual = 0.01095038698385323, Final residual = 0.001060570210269558, No Iterations 12
smoothSolver:  Solving for Uy, Initial residual = 0.05439047784763178, Final residual = 0.00540475077663679, No Iterations 12
smoothSolver:  Solving for Uz, Initial residual = 0.04984207387714164, Final residual = 0.004767020214149706, No Iterations 12
[INFO] MomentumPredictor: 836.246 [ms]
[INFO] MatrixAssemblyPI: 170.014 [ms]
[INFO] MatrixAssemblyPII: 84.738 [ms]
GAMG:  Solving for p, Initial residual = 0.04759566217098952, Final residual = 0.0002826554516654698, No Iterations 6
[INFO] SolveP: 595.8049999999999 [ms]
time step continuity errors : sum local = 0.00270172532650421, global = 3.468157907540496e-05, cumulative = 0.0003440493907618949
[INFO] postSolveP: 44.745 [ms]
smoothSolver:  Solving for nuTilda, Initial residual = 0.02485191614426279, Final residual = 0.001488123917055814, No Iterations 3
[INFO] TimeStep: 3443.532 [ms]
ExecutionTime = 156.24 s  ClockTime = 157 s

Time = 33

velocityDampingConstraint velocityDamping damped 0 (0%) of cells, with max limit 300
[INFO] MatrixAssemblyU: 1061.154 [ms]
smoothSolver:  Solving for Ux, Initial residual = 0.01090999503817819, Final residual = 0.001066972014073814, No Iterations 12
smoothSolver:  Solving for Uy, Initial residual = 0.05673526197988367, Final residual = 0.005634601049795623, No Iterations 12
smoothSolver:  Solving for Uz, Initial residual = 0.05200488326057037, Final residual = 0.005043017023849093, No Iterations 12
[INFO] MomentumPredictor: 837.99 [ms]
[INFO] MatrixAssemblyPI: 169.749 [ms]
[INFO] MatrixAssemblyPII: 84.94199999999999 [ms]
GAMG:  Solving for p, Initial residual = 0.04958424402257131, Final residual = 0.0002850526425422617, No Iterations 6
[INFO] SolveP: 592.489 [ms]
time step continuity errors : sum local = 0.002748752680013364, global = 3.478048874631052e-05, cumulative = 0.0003788298795082054
[INFO] postSolveP: 44.796 [ms]
smoothSolver:  Solving for nuTilda, Initial residual = 0.01598617899126347, Final residual = 0.001480503686909641, No Iterations 3
[INFO] TimeStep: 3441.257 [ms]
ExecutionTime = 160.52 s  ClockTime = 161 s

Time = 34

velocityDampingConstraint velocityDamping damped 0 (0%) of cells, with max limit 300
[INFO] MatrixAssemblyU: 1059.48 [ms]
smoothSolver:  Solving for Ux, Initial residual = 0.01103542368863981, Final residual = 0.001077511577530069, No Iterations 12
smoothSolver:  Solving for Uy, Initial residual = 0.05929784853675872, Final residual = 0.005888825825115219, No Iterations 12
smoothSolver:  Solving for Uz, Initial residual = 0.05451399045244221, Final residual = 0.005339093545192503, No Iterations 12
[INFO] MomentumPredictor: 835.856 [ms]
[INFO] MatrixAssemblyPI: 170.102 [ms]
[INFO] MatrixAssemblyPII: 84.785 [ms]
GAMG:  Solving for p, Initial residual = 0.05175795736785006, Final residual = 0.0005099513446286724, No Iterations 5
[INFO] SolveP: 502.062 [ms]
time step continuity errors : sum local = 0.004960129734669735, global = 3.548804573154223e-05, cumulative = 0.0004143179252397476
[INFO] postSolveP: 44.839 [ms]
smoothSolver:  Solving for nuTilda, Initial residual = 0.02320885066269058, Final residual = 0.001394135277321713, No Iterations 3
[INFO] TimeStep: 3345.788 [ms]
ExecutionTime = 164.7 s  ClockTime = 165 s

Time = 35

velocityDampingConstraint velocityDamping damped 0 (0%) of cells, with max limit 300
[INFO] MatrixAssemblyU: 1059.612 [ms]
smoothSolver:  Solving for Ux, Initial residual = 0.01110450243017057, Final residual = 0.001090893390080423, No Iterations 12
smoothSolver:  Solving for Uy, Initial residual = 0.06181759189735248, Final residual = 0.006179599536277324, No Iterations 12
smoothSolver:  Solving for Uz, Initial residual = 0.05705446786421165, Final residual = 0.005605781615083833, No Iterations 12
[INFO] MomentumPredictor: 837.806 [ms]
[INFO] MatrixAssemblyPI: 170.245 [ms]
[INFO] MatrixAssemblyPII: 84.535 [ms]
GAMG:  Solving for p, Initial residual = 0.05359540781365771, Final residual = 0.00052443483218028, No Iterations 5
[INFO] SolveP: 503.559 [ms]
time step continuity errors : sum local = 0.005149070318811959, global = 4.094716317937006e-05, cumulative = 0.0004552650884191177
[INFO] postSolveP: 44.794 [ms]
smoothSolver:  Solving for nuTilda, Initial residual = 0.01502269456159734, Final residual = 0.001382775485689789, No Iterations 3
[INFO] TimeStep: 3349.793 [ms]
ExecutionTime = 168.88 s  ClockTime = 169 s

Time = 36

velocityDampingConstraint velocityDamping damped 0 (0%) of cells, with max limit 300
[INFO] MatrixAssemblyU: 1057.376 [ms]
smoothSolver:  Solving for Ux, Initial residual = 0.01138065261016221, Final residual = 0.001112040993104973, No Iterations 12
smoothSolver:  Solving for Uy, Initial residual = 0.06404486518554008, Final residual = 0.005541937951313901, No Iterations 13
smoothSolver:  Solving for Uz, Initial residual = 0.05968242151523336, Final residual = 0.005859210429972948, No Iterations 12
[INFO] MomentumPredictor: 857.4299999999999 [ms]
[INFO] MatrixAssemblyPI: 170.772 [ms]
[INFO] MatrixAssemblyPII: 84.892 [ms]
GAMG:  Solving for p, Initial residual = 0.05510307148366232, Final residual = 0.0004918042450674606, No Iterations 5
[INFO] SolveP: 502.459 [ms]
time step continuity errors : sum local = 0.004860860497210409, global = 4.304003548020896e-05, cumulative = 0.0004983051238993267
[INFO] postSolveP: 44.785 [ms]
smoothSolver:  Solving for nuTilda, Initial residual = 0.02179301070648186, Final residual = 0.001307899819038344, No Iterations 3
[INFO] TimeStep: 3366.97 [ms]
ExecutionTime = 173.08 s  ClockTime = 173 s

Time = 37

velocityDampingConstraint velocityDamping damped 0 (0%) of cells, with max limit 300
[INFO] MatrixAssemblyU: 1057.898 [ms]
smoothSolver:  Solving for Ux, Initial residual = 0.01159565802484078, Final residual = 0.001138338473882286, No Iterations 12
smoothSolver:  Solving for Uy, Initial residual = 0.06575018602019408, Final residual = 0.005774636733551438, No Iterations 13
smoothSolver:  Solving for Uz, Initial residual = 0.0623207785662889, Final residual = 0.006088603461005524, No Iterations 12
[INFO] MomentumPredictor: 854.737 [ms]
[INFO] MatrixAssemblyPI: 170.128 [ms]
[INFO] MatrixAssemblyPII: 85.02500000000001 [ms]
GAMG:  Solving for p, Initial residual = 0.0569056307042758, Final residual = 0.0004767232309590179, No Iterations 5
[INFO] SolveP: 502.931 [ms]
time step continuity errors : sum local = 0.004744170776512967, global = 4.402447488923247e-05, cumulative = 0.0005423295987885591
[INFO] postSolveP: 44.999 [ms]
smoothSolver:  Solving for nuTilda, Initial residual = 0.01419845127360178, Final residual = 0.001295521507391182, No Iterations 3
[INFO] TimeStep: 3364.283 [ms]
ExecutionTime = 177.27 s  ClockTime = 178 s

Time = 38

velocityDampingConstraint velocityDamping damped 0 (0%) of cells, with max limit 300
[INFO] MatrixAssemblyU: 1057.995 [ms]
smoothSolver:  Solving for Ux, Initial residual = 0.01190964900728572, Final residual = 0.00116101634175666, No Iterations 12
smoothSolver:  Solving for Uy, Initial residual = 0.06719091818958804, Final residual = 0.005952214887877562, No Iterations 13
smoothSolver:  Solving for Uz, Initial residual = 0.06506970532679129, Final residual = 0.006287601785939547, No Iterations 12
[INFO] MomentumPredictor: 857.664 [ms]
[INFO] MatrixAssemblyPI: 170.464 [ms]
[INFO] MatrixAssemblyPII: 84.806 [ms]
GAMG:  Solving for p, Initial residual = 0.05772312708878508, Final residual = 0.0004979077110115646, No Iterations 5
[INFO] SolveP: 504.923 [ms]
time step continuity errors : sum local = 0.004983246466345986, global = 3.41725933458539e-05, cumulative = 0.000576502192134413
[INFO] postSolveP: 44.845 [ms]
smoothSolver:  Solving for nuTilda, Initial residual = 0.02056379093675379, Final residual = 0.001231965399876318, No Iterations 3
[INFO] TimeStep: 3367.907 [ms]
ExecutionTime = 181.46 s  ClockTime = 182 s

Time = 39

velocityDampingConstraint velocityDamping damped 0 (0%) of cells, with max limit 300
[INFO] MatrixAssemblyU: 1055.503 [ms]
smoothSolver:  Solving for Ux, Initial residual = 0.01199793881728879, Final residual = 0.001173455197739202, No Iterations 12
smoothSolver:  Solving for Uy, Initial residual = 0.06862620318479606, Final residual = 0.006112042528118877, No Iterations 13
smoothSolver:  Solving for Uz, Initial residual = 0.06752187211080563, Final residual = 0.006502440779939988, No Iterations 12
[INFO] MomentumPredictor: 852.9400000000001 [ms]
[INFO] MatrixAssemblyPI: 170.183 [ms]
[INFO] MatrixAssemblyPII: 84.68300000000001 [ms]
GAMG:  Solving for p, Initial residual = 0.05790537092128581, Final residual = 0.0005277987593461478, No Iterations 5
[INFO] SolveP: 502.119 [ms]
time step continuity errors : sum local = 0.005304127676300837, global = 2.075993596542396e-05, cumulative = 0.0005972621280998369
[INFO] postSolveP: 44.886 [ms]
smoothSolver:  Solving for nuTilda, Initial residual = 0.01353256349080193, Final residual = 0.001221294756977198, No Iterations 3
[INFO] TimeStep: 3357.675 [ms]
ExecutionTime = 185.66 s  ClockTime = 186 s

Time = 40

velocityDampingConstraint velocityDamping damped 0 (0%) of cells, with max limit 300
[INFO] MatrixAssemblyU: 1054.883 [ms]
smoothSolver:  Solving for Ux, Initial residual = 0.01212846086625122, Final residual = 0.001183081740530918, No Iterations 12
smoothSolver:  Solving for Uy, Initial residual = 0.06969340302945704, Final residual = 0.006263071090162454, No Iterations 13
smoothSolver:  Solving for Uz, Initial residual = 0.06921264566934611, Final residual = 0.00672617828583826, No Iterations 12
[INFO] MomentumPredictor: 856.3150000000001 [ms]
[INFO] MatrixAssemblyPI: 170.405 [ms]
[INFO] MatrixAssemblyPII: 84.755 [ms]
GAMG:  Solving for p, Initial residual = 0.05800094414655186, Final residual = 0.000529775288164356, No Iterations 5
[INFO] SolveP: 504.493 [ms]
time step continuity errors : sum local = 0.005331281799538556, global = 8.599042737342496e-06, cumulative = 0.0006058611708371794
[INFO] postSolveP: 44.697 [ms]
smoothSolver:  Solving for nuTilda, Initial residual = 0.0194592283172666, Final residual = 0.001167850871655451, No Iterations 3
[INFO] TimeStep: 3362.595 [ms]
ExecutionTime = 189.84 s  ClockTime = 190 s

Time = 41

velocityDampingConstraint velocityDamping damped 0 (0%) of cells, with max limit 300
[INFO] MatrixAssemblyU: 1054.743 [ms]
smoothSolver:  Solving for Ux, Initial residual = 0.01205057217270658, Final residual = 0.001191340261292836, No Iterations 12
smoothSolver:  Solving for Uy, Initial residual = 0.07023787137373257, Final residual = 0.006407311850108901, No Iterations 13
smoothSolver:  Solving for Uz, Initial residual = 0.07025289991199989, Final residual = 0.006912063004446855, No Iterations 12
[INFO] MomentumPredictor: 855.074 [ms]
[INFO] MatrixAssemblyPI: 170.02 [ms]
[INFO] MatrixAssemblyPII: 84.65300000000001 [ms]
GAMG:  Solving for p, Initial residual = 0.05745215164797408, Final residual = 0.0004964081914212126, No Iterations 5
[INFO] SolveP: 503.662 [ms]
time step continuity errors : sum local = 0.004996665696084371, global = 3.682479225178593e-06, cumulative = 0.000609543650062358
[INFO] postSolveP: 44.762 [ms]
smoothSolver:  Solving for nuTilda, Initial residual = 0.01294754453251443, Final residual = 0.001159019650316385, No Iterations 3
[INFO] TimeStep: 3360.505 [ms]
ExecutionTime = 194.04 s  ClockTime = 194 s

Time = 42

velocityDampingConstraint velocityDamping damped 0 (0%) of cells, with max limit 300
[INFO] MatrixAssemblyU: 1053.443 [ms]
smoothSolver:  Solving for Ux, Initial residual = 0.01209177102327874, Final residual = 0.001197950884630862, No Iterations 12
smoothSolver:  Solving for Uy, Initial residual = 0.07071239153702129, Final residual = 0.006590694757591795, No Iterations 13
smoothSolver:  Solving for Uz, Initial residual = 0.07077693193061622, Final residual = 0.006017226996770329, No Iterations 13
[INFO] MomentumPredictor: 873.179 [ms]
[INFO] MatrixAssemblyPI: 170.965 [ms]
[INFO] MatrixAssemblyPII: 84.559 [ms]
GAMG:  Solving for p, Initial residual = 0.05710847902648799, Final residual = 0.000467920812676662, No Iterations 5
[INFO] SolveP: 503.624 [ms]
time step continuity errors : sum local = 0.00470055143652852, global = -3.959080650453105e-06, cumulative = 0.0006055845694119049
[INFO] postSolveP: 45.039 [ms]
smoothSolver:  Solving for nuTilda, Initial residual = 0.01844957219563477, Final residual = 0.001112482082156541, No Iterations 3
[INFO] TimeStep: 3377.135 [ms]
ExecutionTime = 198.24 s  ClockTime = 199 s

Time = 43

velocityDampingConstraint velocityDamping damped 0 (0%) of cells, with max limit 300
[INFO] MatrixAssemblyU: 1052.414 [ms]
smoothSolver:  Solving for Ux, Initial residual = 0.01200186766217759, Final residual = 0.001026075559217743, No Iterations 13
smoothSolver:  Solving for Uy, Initial residual = 0.0714470799646791, Final residual = 0.006807775239176076, No Iterations 13
smoothSolver:  Solving for Uz, Initial residual = 0.0704660250524456, Final residual = 0.006107263730137381, No Iterations 13
[INFO] MomentumPredictor: 888.855 [ms]
[INFO] MatrixAssemblyPI: 169.876 [ms]
[INFO] MatrixAssemblyPII: 84.756 [ms]
GAMG:  Solving for p, Initial residual = 0.05649337431142725, Final residual = 0.000470347111935393, No Iterations 5
[INFO] SolveP: 502.27 [ms]
time step continuity errors : sum local = 0.004702065662584617, global = -9.31012355248709e-06, cumulative = 0.0005962744458594179
[INFO] postSolveP: 44.639 [ms]
smoothSolver:  Solving for nuTilda, Initial residual = 0.01236416861720871, Final residual = 0.001102853153100859, No Iterations 3
[INFO] TimeStep: 3390.277 [ms]
ExecutionTime = 202.45 s  ClockTime = 203 s

Time = 44

velocityDampingConstraint velocityDamping damped 0 (0%) of cells, with max limit 300
[INFO] MatrixAssemblyU: 1052.605 [ms]
smoothSolver:  Solving for Ux, Initial residual = 0.01202160231852607, Final residual = 0.001034249136594667, No Iterations 13
smoothSolver:  Solving for Uy, Initial residual = 0.07189908206033396, Final residual = 0.007006574256601158, No Iterations 13
smoothSolver:  Solving for Uz, Initial residual = 0.06992177407431274, Final residual = 0.006188845138471474, No Iterations 13
[INFO] MomentumPredictor: 892.519 [ms]
[INFO] MatrixAssemblyPI: 169.8 [ms]
[INFO] MatrixAssemblyPII: 84.729 [ms]
GAMG:  Solving for p, Initial residual = 0.0560091049368445, Final residual = 0.000483948106215963, No Iterations 5
[INFO] SolveP: 503.546 [ms]
time step continuity errors : sum local = 0.004791098685678046, global = -1.340858797053254e-05, cumulative = 0.0005828658578888854
[INFO] postSolveP: 44.841 [ms]
smoothSolver:  Solving for nuTilda, Initial residual = 0.0175092024031591, Final residual = 0.00106045931330683, No Iterations 3
[INFO] TimeStep: 3393.118 [ms]
ExecutionTime = 206.68 s  ClockTime = 207 s

Time = 45

velocityDampingConstraint velocityDamping damped 0 (0%) of cells, with max limit 300
[INFO] MatrixAssemblyU: 1054.775 [ms]
smoothSolver:  Solving for Ux, Initial residual = 0.01188689759423272, Final residual = 0.001042227940988684, No Iterations 13
smoothSolver:  Solving for Uy, Initial residual = 0.07199589879496739, Final residual = 0.007130717956042332, No Iterations 13
smoothSolver:  Solving for Uz, Initial residual = 0.06915625193462287, Final residual = 0.00625748060941616, No Iterations 13
[INFO] MomentumPredictor: 890.34 [ms]
[INFO] MatrixAssemblyPI: 170.384 [ms]
[INFO] MatrixAssemblyPII: 84.72199999999999 [ms]
GAMG:  Solving for p, Initial residual = 0.0556230273372233, Final residual = 0.0004850525890585455, No Iterations 5
[INFO] SolveP: 502.151 [ms]
time step continuity errors : sum local = 0.004736124660022037, global = -2.772114306394529e-06, cumulative = 0.0005800937435824909
[INFO] postSolveP: 44.823 [ms]
smoothSolver:  Solving for nuTilda, Initial residual = 0.01180367604371549, Final residual = 0.001049242432585397, No Iterations 3
[INFO] TimeStep: 3394.89 [ms]
ExecutionTime = 210.89 s  ClockTime = 211 s

Time = 46

velocityDampingConstraint velocityDamping damped 0 (0%) of cells, with max limit 300
[INFO] MatrixAssemblyU: 1051.168 [ms]
smoothSolver:  Solving for Ux, Initial residual = 0.01176225018347452, Final residual = 0.001046023869303559, No Iterations 13
smoothSolver:  Solving for Uy, Initial residual = 0.07199213319342551, Final residual = 0.006149067289776312, No Iterations 14
smoothSolver:  Solving for Uz, Initial residual = 0.06796945344674893, Final residual = 0.006316234821239106, No Iterations 13
[INFO] MomentumPredictor: 913.474 [ms]
[INFO] MatrixAssemblyPI: 170.074 [ms]
[INFO] MatrixAssemblyPII: 85.92100000000001 [ms]
GAMG:  Solving for p, Initial residual = 0.05497921182280338, Final residual = 0.0004673007347422462, No Iterations 5
[INFO] SolveP: 503.67 [ms]
time step continuity errors : sum local = 0.004515583998529571, global = 1.513212584508844e-05, cumulative = 0.0005952258694275793
[INFO] postSolveP: 44.777 [ms]
smoothSolver:  Solving for nuTilda, Initial residual = 0.01662536658257778, Final residual = 0.00101137318001008, No Iterations 3
[INFO] TimeStep: 3416.605 [ms]
ExecutionTime = 215.13 s  ClockTime = 216 s

Time = 47

velocityDampingConstraint velocityDamping damped 0 (0%) of cells, with max limit 300
[INFO] MatrixAssemblyU: 1052.419 [ms]
smoothSolver:  Solving for Ux, Initial residual = 0.01152666551076756, Final residual = 0.001051330098641384, No Iterations 13
smoothSolver:  Solving for Uy, Initial residual = 0.07169848786062394, Final residual = 0.006153815110556422, No Iterations 14
smoothSolver:  Solving for Uz, Initial residual = 0.06669676087137605, Final residual = 0.006361272237427742, No Iterations 13
[INFO] MomentumPredictor: 907.789 [ms]
[INFO] MatrixAssemblyPI: 170.231 [ms]
[INFO] MatrixAssemblyPII: 84.577 [ms]
GAMG:  Solving for p, Initial residual = 0.05425282863510455, Final residual = 0.0004647996533620831, No Iterations 5
[INFO] SolveP: 503.667 [ms]
time step continuity errors : sum local = 0.004461854068589615, global = 3.375333144906866e-05, cumulative = 0.000628979200876648
[INFO] postSolveP: 44.651 [ms]
smoothSolver:  Solving for nuTilda, Initial residual = 0.01127878881863041, Final residual = 0.001001437085507088, No Iterations 3
[INFO] TimeStep: 3408.936 [ms]
ExecutionTime = 219.36 s  ClockTime = 220 s

Time = 48

velocityDampingConstraint velocityDamping damped 0 (0%) of cells, with max limit 300
[INFO] MatrixAssemblyU: 1052.101 [ms]
smoothSolver:  Solving for Ux, Initial residual = 0.01149038927631268, Final residual = 0.001057324622346336, No Iterations 13
smoothSolver:  Solving for Uy, Initial residual = 0.07138987403496609, Final residual = 0.006149748084718638, No Iterations 14
smoothSolver:  Solving for Uz, Initial residual = 0.06555943504248285, Final residual = 0.006354754118257873, No Iterations 13
[INFO] MomentumPredictor: 912.011 [ms]
[INFO] MatrixAssemblyPI: 170.227 [ms]
[INFO] MatrixAssemblyPII: 84.53400000000001 [ms]
GAMG:  Solving for p, Initial residual = 0.05340545465173818, Final residual = 0.0004675758115693934, No Iterations 5
[INFO] SolveP: 506.956 [ms]
time step continuity errors : sum local = 0.004456926315357747, global = 3.400351414322569e-05, cumulative = 0.0006629827150198737
[INFO] postSolveP: 44.761 [ms]
smoothSolver:  Solving for nuTilda, Initial residual = 0.01584043575373646, Final residual = 0.0009701170141138045, No Iterations 3
[INFO] TimeStep: 3416.176 [ms]
ExecutionTime = 223.59 s  ClockTime = 224 s

Time = 49

velocityDampingConstraint velocityDamping damped 0 (0%) of cells, with max limit 300
[INFO] MatrixAssemblyU: 1050.912 [ms]
smoothSolver:  Solving for Ux, Initial residual = 0.01138937484586017, Final residual = 0.001061932947113129, No Iterations 13
smoothSolver:  Solving for Uy, Initial residual = 0.07080889022329422, Final residual = 0.006128581273182766, No Iterations 14
smoothSolver:  Solving for Uz, Initial residual = 0.06455964973059168, Final residual = 0.006330029363257941, No Iterations 13
[INFO] MomentumPredictor: 913.316 [ms]
[INFO] MatrixAssemblyPI: 170.204 [ms]
[INFO] MatrixAssemblyPII: 84.548 [ms]
GAMG:  Solving for p, Initial residual = 0.05278569671904027, Final residual = 0.0004728901228336772, No Iterations 5
[INFO] SolveP: 503.88 [ms]
time step continuity errors : sum local = 0.004481037778014788, global = 2.196129797320028e-05, cumulative = 0.000684944012993074
[INFO] postSolveP: 44.89 [ms]
smoothSolver:  Solving for nuTilda, Initial residual = 0.01084098607886835, Final residual = 0.0009637156848467151, No Iterations 3
[INFO] TimeStep: 3412.293 [ms]
ExecutionTime = 227.83 s  ClockTime = 228 s

Time = 50

velocityDampingConstraint velocityDamping damped 0 (0%) of cells, with max limit 300
[INFO] MatrixAssemblyU: 1049.898 [ms]
smoothSolver:  Solving for Ux, Initial residual = 0.0113963099018743, Final residual = 0.001064222543499031, No Iterations 13
smoothSolver:  Solving for Uy, Initial residual = 0.06990273535008205, Final residual = 0.006064616659093654, No Iterations 14
smoothSolver:  Solving for Uz, Initial residual = 0.06362266508352611, Final residual = 0.006293371249465494, No Iterations 13
[INFO] MomentumPredictor: 911.402 [ms]
[INFO] MatrixAssemblyPI: 169.821 [ms]
[INFO] MatrixAssemblyPII: 85.42100000000001 [ms]
GAMG:  Solving for p, Initial residual = 0.05258819689152912, Final residual = 0.0004834819780087203, No Iterations 5
[INFO] SolveP: 503.927 [ms]
time step continuity errors : sum local = 0.004547644873418882, global = 2.661182976732604e-06, cumulative = 0.0006876051959698066
[INFO] postSolveP: 45.034 [ms]
smoothSolver:  Solving for nuTilda, Initial residual = 0.01515914946612769, Final residual = 0.0009379798539287816, No Iterations 3
[INFO] TimeStep: 3411.619 [ms]
ExecutionTime = 232.07 s  ClockTime = 233 s

End

Finalising parallel run
