/*---------------------------------------------------------------------------*\
| =========                 |                                                 |
| \\      /  F ield         | OpenFOAM: The Open Source CFD Toolbox           |
|  \\    /   O peration     | Version:  2306                                  |
|   \\  /    A nd           | Website:  www.openfoam.com                      |
|    \\/     M anipulation  |                                                 |
\*---------------------------------------------------------------------------*/
Build  : c423ebec-20231012 OPENFOAM=2306 version=v2306
Arch   : "LSB;label=32;scalar=64"
Exec   : icoFoam -parallel -case /hkfs/work/workspace/scratch/eq4036-l3d/workspace/832c8a2900258a45609ab40cf93ab870/case
Date   : Dec 30 2023
Time   : 09:30:13
Host   : hkn0818.localdomain
PID    : 2063838
I/O    : uncollated
Case   : /hkfs/work/workspace/scratch/eq4036-l3d/workspace/832c8a2900258a45609ab40cf93ab870/case
nProcs : 4
Hosts  :
(
    (hkn0818.localdomain 4)
)
Pstream initialized with:
    floatTransfer      : false
    nProcsSimpleSum    : 0
    nonBlockingExchange: 0 (tuning: 0)
    exchange algorithm : -1
    commsType          : nonBlocking
    polling iterations : 0
trapFpe: Floating point exception trapping enabled (FOAM_SIGFPE).
fileModificationChecking : Monitoring run-time modified files using timeStampMaster (fileModificationSkew 5, maxFileModificationPolls 20)
allowSystemOperations : Allowing user-supplied system call operations

// * * * * * * * * * * * * * * * * * * * * * * * * * * * * * * * * * * * * * //
Create time

--> FOAM Warning : 
    From void* Foam::dlLibraryTable::openLibrary(const Foam::fileName&, bool)
    in file db/dynamicLibrary/dlLibraryTable/dlLibraryTable.C at line 188
    Could not load "libpetscFoam.so"
libpetscFoam.so: cannot open shared object file: No such file or directory
Create mesh for time = 0


PISO: Operating solver in PISO mode

Reading transportProperties

Reading field p

Reading field U

Reading/calculating face flux field phi


Starting time loop

Time = 0.00025

Courant Number mean: 8.24341e-18 max: 2.08167e-14
[INFO] MatrixAssemblyU: 403.668 [ms]
DILUPBiCGStab:  Solving for Ux, Initial residual = 1, Final residual = 0.00897261, No Iterations 5
DILUPBiCGStab:  Solving for Uy:  solution singularity
DILUPBiCGStab:  Solving for Uz:  solution singularity
[INFO] MomentumPredictor: 1437.12 [ms]
[INFO] MatrixAssemblyPI: 364.116 [ms]
[INFO] AdjustPhi: 17.811 [ms]
[INFO] ConstrainPressure: 0.005 [ms]
[INFO] MatrixAssemblyPII: 121.639 [ms]
[OGL LOG][lduLduBase.H:119] Initialising OGL
	OGL commit:  a2fc0ff+
	Branch: feat/on_device_permute 
	Build type: Release
	Ginkgo version: 1.7.0 ( develop)
	Ginkgo commit: sparse-communicator
	MPI is GPU aware: 1
	Forces host buffer based communication: 0
	CPU ranks per GPU: 1
	Matrix format: Ell
	End OGL_INFO
[OGL LOG][Proc: 0]: global_index_init: 0.036 [ms]
[OGL LOG][Proc: 0]p_local_cols: call_init: 0.519 [ms]
[OGL LOG][Proc: 0]p_local_rows: call_init: 0.668 [ms]
[OGL LOG][Proc: 0]p_local_ldu_map: call_init: 0.732 [ms]
[OGL LOG][Proc: 0]p_local_coeffs: call_init: 4.048 [ms]
[OGL LOG][Proc: 0]p_non_local_cols: call_init: 0.568 [ms]
[OGL LOG][Proc: 0]p_non_local_rows: call_init: 0.541 [ms]
[OGL LOG][Proc: 0]p_non_local_ldu_map: call_init: 0.629 [ms]
[OGL LOG][Proc: 0]p_non_local_coeffs: call_init: 0.496 [ms]
[OGL LOG][Proc: 0]p: init_local_sparsity_pattern: 610.213 [ms]
[OGL LOG][Proc: 0]p: init_non_local_sparsity_pattern: 2.523 [ms]
[OGL LOG][Proc: 0]p: update_local_matrix_data: 118.267 [ms]
[OGL LOG][Proc: 0]p: update_non_local_matrix_data: 0.24 [ms]
[OGL LOG][Proc: 0]device_partition: call_init: 1.168 [ms]
[OGL LOG][Proc: 0]p_matrix: call_init: 195.841 [ms]
[OGL LOG][Proc: 0]p_rhs: call_init: 2.197 [ms]
[OGL LOG][Proc: 0]p_solution: call_init: 3.827 [ms]
[OGL LOG][Preconditioner.H:121] Generate preconditioner BJ MaxBlockSize 1
[OGL LOG][Proc: 0]p: init_precond: 14.193 [ms]
[OGL LOG][StoppingCriterion.H:237] Creating stopping criterion with minIter 0 frequency 1
[OGL LOG][Proc: 0]p: generate_solver: 0.03 [ms]
[OGL LOG][Proc: 0]p: solve: 1100.67 [ms]
[OGL LOG][Proc: 0]p: copy_x_back: 5.533 [ms]
[OGL LOG][lduLduBase.H:330] 
Statistics:
	Time per iteration: 688 [mu s]
	Time per residual norm calculation: 2680.000000 [mu s]
	Time per iteration and DOF: 0.086000 [ns]
	Retrieve results bandwidth 2.891000 [GByte/s]
[OGL LOG][Proc: 0]p: solve_multi_gpu: 1324.74 [ms]
BJcudaGKOCG:  Solving for p, Initial residual = 1, Final residual = 9.91815e-05, No Iterations 1599
[INFO] SolveP: 2810.9 [ms]
time step continuity errors : sum local = 7.33384e-09, global = -1.09648e-20, cumulative = -1.09648e-20
[INFO] ContinuityError: 45.22 [ms]
[INFO] CorrectBoundary: 0.633 [ms]
[INFO] PISOStep: 3498.72 [ms]
[INFO] MatrixAssemblyPI: 358.139 [ms]
[INFO] AdjustPhi: 17.541 [ms]
[INFO] ConstrainPressure: 0.002 [ms]
[INFO] MatrixAssemblyPII: 120.242 [ms]
[OGL LOG][Proc: 0]: global_index_init: 1.28 [ms]
[OGL LOG][Proc: 0]p_local_coeffs: call_update: 0.001 [ms]
[OGL LOG][Proc: 0]p_non_local_coeffs: call_update: 0 [ms]
[OGL LOG][Proc: 0]p: update_local_matrix_data: 72.237 [ms]
[OGL LOG][Proc: 0]p: update_non_local_matrix_data: 0.316 [ms]
[OGL LOG][Proc: 0]p: regenerate_distributed_matrix: 193.041 [ms]
[OGL LOG][Proc: 0]p_matrix: call_update: 194.123 [ms]
[OGL LOG][Proc: 0]p_rhs: call_update: 1.878 [ms]
[OGL LOG][Preconditioner.H:121] Generate preconditioner BJ MaxBlockSize 1
[OGL LOG][Proc: 0]p: init_precond: 1.044 [ms]
[OGL LOG][StoppingCriterion.H:237] Creating stopping criterion with minIter 0 frequency 1
[OGL LOG][Proc: 0]p: generate_solver: 0.003 [ms]
[OGL LOG][Proc: 0]p: solve: 1033.89 [ms]
[OGL LOG][Proc: 0]p: copy_x_back: 5.433 [ms]
[OGL LOG][lduLduBase.H:330] 
Statistics:
	Time per iteration: 653 [mu s]
	Time per residual norm calculation: 91.000000 [mu s]
	Time per iteration and DOF: 0.081625 [ns]
	Retrieve results bandwidth 2.944000 [GByte/s]
[OGL LOG][Proc: 0]p: solve_multi_gpu: 1237.42 [ms]
BJcudaGKOCG:  Solving for p, Initial residual = 0.782727, Final residual = 9.99855e-05, No Iterations 1581
[INFO] SolveP: 1322.7 [ms]
time step continuity errors : sum local = 9.29854e-09, global = 4.26969e-22, cumulative = -1.05379e-20
[INFO] ContinuityError: 40.012 [ms]
[INFO] CorrectBoundary: 0.424 [ms]
[INFO] PISOStep: 1985.53 [ms]
[INFO] TimeStep: 7374.54 [ms]
ExecutionTime = 8.34 s  ClockTime = 9 s

Time = 0.0005

Courant Number mean: 0.0160084 max: 0.412533
[INFO] MatrixAssemblyU: 326.585 [ms]
DILUPBiCGStab:  Solving for Ux, Initial residual = 0.129594, Final residual = 0.00479226, No Iterations 5
DILUPBiCGStab:  Solving for Uy, Initial residual = 0.426506, Final residual = 0.0117086, No Iterations 5
DILUPBiCGStab:  Solving for Uz, Initial residual = 0.994268, Final residual = 0.0302626, No Iterations 5
[INFO] MomentumPredictor: 2722.65 [ms]
[INFO] MatrixAssemblyPI: 378.317 [ms]
[INFO] AdjustPhi: 17.592 [ms]
[INFO] ConstrainPressure: 0.002 [ms]
[INFO] MatrixAssemblyPII: 114.307 [ms]
[OGL LOG][Proc: 0]: global_index_init: 0.014 [ms]
[OGL LOG][Proc: 0]p_local_coeffs: call_update: 0 [ms]
[OGL LOG][Proc: 0]p_non_local_coeffs: call_update: 0 [ms]
[OGL LOG][Proc: 0]p: update_local_matrix_data: 72.492 [ms]
[OGL LOG][Proc: 0]p: update_non_local_matrix_data: 0.327 [ms]
[OGL LOG][Proc: 0]p: regenerate_distributed_matrix: 192.889 [ms]
[OGL LOG][Proc: 0]p_matrix: call_update: 194.117 [ms]
[OGL LOG][Proc: 0]p_rhs: call_update: 1.893 [ms]
[OGL LOG][Preconditioner.H:121] Generate preconditioner BJ MaxBlockSize 1
[OGL LOG][Proc: 0]p: init_precond: 1.039 [ms]
[OGL LOG][StoppingCriterion.H:237] Creating stopping criterion with minIter 948 frequency 9
[OGL LOG][Proc: 0]p: generate_solver: 0.001 [ms]
[OGL LOG][Proc: 0]p: solve: 910.736 [ms]
[OGL LOG][Proc: 0]p: copy_x_back: 6.429 [ms]
[OGL LOG][lduLduBase.H:330] 
Statistics:
	Time per iteration: 577 [mu s]
	Time per residual norm calculation: 92.000000 [mu s]
	Time per iteration and DOF: 0.072125 [ns]
	Retrieve results bandwidth 2.488000 [GByte/s]
[OGL LOG][Proc: 0]p: solve_multi_gpu: 1115.78 [ms]
BJcudaGKOCG:  Solving for p, Initial residual = 0.817248, Final residual = 8.5449e-05, No Iterations 1576
[INFO] SolveP: 1200.37 [ms]
time step continuity errors : sum local = 1.20416e-08, global = 1.30003e-22, cumulative = -1.04079e-20
[INFO] ContinuityError: 40.581 [ms]
[INFO] CorrectBoundary: 0.54 [ms]
[INFO] PISOStep: 1884.29 [ms]
[INFO] MatrixAssemblyPI: 357.108 [ms]
[INFO] AdjustPhi: 17.544 [ms]
[INFO] ConstrainPressure: 0.002 [ms]
[INFO] MatrixAssemblyPII: 113.866 [ms]
[OGL LOG][Proc: 0]: global_index_init: 0.011 [ms]
[OGL LOG][Proc: 0]p_local_coeffs: call_update: 0 [ms]
[OGL LOG][Proc: 0]p_non_local_coeffs: call_update: 0 [ms]
[OGL LOG][Proc: 0]p: update_local_matrix_data: 66.271 [ms]
[OGL LOG][Proc: 0]p: update_non_local_matrix_data: 0.317 [ms]
[OGL LOG][Proc: 0]p: regenerate_distributed_matrix: 184.401 [ms]
[OGL LOG][Proc: 0]p_matrix: call_update: 185.525 [ms]
[OGL LOG][Proc: 0]p_rhs: call_update: 1.849 [ms]
[OGL LOG][Preconditioner.H:121] Generate preconditioner BJ MaxBlockSize 1
[OGL LOG][Proc: 0]p: init_precond: 1.028 [ms]
[OGL LOG][StoppingCriterion.H:237] Creating stopping criterion with minIter 945 frequency 10
[OGL LOG][Proc: 0]p: generate_solver: 0.003 [ms]
[OGL LOG][Proc: 0]p: solve: 896.141 [ms]
[OGL LOG][Proc: 0]p: copy_x_back: 5.551 [ms]
[OGL LOG][lduLduBase.H:330] 
Statistics:
	Time per iteration: 570 [mu s]
	Time per residual norm calculation: 92.000000 [mu s]
	Time per iteration and DOF: 0.071250 [ns]
	Retrieve results bandwidth 2.882000 [GByte/s]
[OGL LOG][Proc: 0]p: solve_multi_gpu: 1091.04 [ms]
BJcudaGKOCG:  Solving for p, Initial residual = 0.761465, Final residual = 8.92987e-05, No Iterations 1571
[INFO] SolveP: 1170.44 [ms]
time step continuity errors : sum local = 1.2809e-08, global = 5.98161e-22, cumulative = -9.8097e-21
[INFO] ContinuityError: 43 [ms]
[INFO] CorrectBoundary: 3.072 [ms]
[INFO] PISOStep: 1831.04 [ms]
[INFO] TimeStep: 6808.04 [ms]
ExecutionTime = 15.13 s  ClockTime = 16 s

Time = 0.00075

Courant Number mean: 0.0244079 max: 0.471872
[INFO] MatrixAssemblyU: 359.934 [ms]
DILUPBiCGStab:  Solving for Ux, Initial residual = 0.0547015, Final residual = 0.00165645, No Iterations 5
DILUPBiCGStab:  Solving for Uy, Initial residual = 0.181533, Final residual = 0.00616414, No Iterations 5
DILUPBiCGStab:  Solving for Uz, Initial residual = 0.816814, Final residual = 0.02227, No Iterations 5
[INFO] MomentumPredictor: 2727.78 [ms]
[INFO] MatrixAssemblyPI: 386.543 [ms]
[INFO] AdjustPhi: 23.89 [ms]
[INFO] ConstrainPressure: 0.002 [ms]
[INFO] MatrixAssemblyPII: 122.417 [ms]
[OGL LOG][Proc: 0]: global_index_init: 0.014 [ms]
[OGL LOG][Proc: 0]p_local_coeffs: call_update: 0 [ms]
[OGL LOG][Proc: 0]p_non_local_coeffs: call_update: 0 [ms]
[OGL LOG][Proc: 0]p: update_local_matrix_data: 82.703 [ms]
[OGL LOG][Proc: 0]p: update_non_local_matrix_data: 0.309 [ms]
[OGL LOG][Proc: 0]p: regenerate_distributed_matrix: 200.275 [ms]
[OGL LOG][Proc: 0]p_matrix: call_update: 206.281 [ms]
[OGL LOG][Proc: 0]p_rhs: call_update: 4.246 [ms]
[OGL LOG][Preconditioner.H:121] Generate preconditioner BJ MaxBlockSize 1
[OGL LOG][Proc: 0]p: init_precond: 4.13 [ms]
[OGL LOG][StoppingCriterion.H:237] Creating stopping criterion with minIter 942 frequency 10
[OGL LOG][Proc: 0]p: generate_solver: 0.001 [ms]
[OGL LOG][Proc: 0]p: solve: 967.306 [ms]
[OGL LOG][Proc: 0]p: copy_x_back: 6.341 [ms]
[OGL LOG][lduLduBase.H:330] 
Statistics:
	Time per iteration: 615 [mu s]
	Time per residual norm calculation: 93.000000 [mu s]
	Time per iteration and DOF: 0.076875 [ns]
	Retrieve results bandwidth 2.523000 [GByte/s]
[OGL LOG][Proc: 0]p: solve_multi_gpu: 1189.88 [ms]
BJcudaGKOCG:  Solving for p, Initial residual = 0.845127, Final residual = 7.92098e-05, No Iterations 1571
[INFO] SolveP: 1283.76 [ms]
time step continuity errors : sum local = 1.03606e-08, global = 2.16997e-21, cumulative = -7.63973e-21
[INFO] ContinuityError: 39.596 [ms]
[INFO] CorrectBoundary: 2.723 [ms]
[INFO] PISOStep: 1994.49 [ms]
[INFO] MatrixAssemblyPI: 353.869 [ms]
[INFO] AdjustPhi: 17.79 [ms]
[INFO] ConstrainPressure: 0.002 [ms]
[INFO] MatrixAssemblyPII: 113.652 [ms]
[OGL LOG][Proc: 0]: global_index_init: 0.024 [ms]
[OGL LOG][Proc: 0]p_local_coeffs: call_update: 0 [ms]
[OGL LOG][Proc: 0]p_non_local_coeffs: call_update: 0 [ms]
[OGL LOG][Proc: 0]p: update_local_matrix_data: 63.661 [ms]
[OGL LOG][Proc: 0]p: update_non_local_matrix_data: 0.215 [ms]
[OGL LOG][Proc: 0]p: regenerate_distributed_matrix: 185.222 [ms]
[OGL LOG][Proc: 0]p_matrix: call_update: 186.288 [ms]
[OGL LOG][Proc: 0]p_rhs: call_update: 1.92 [ms]
[OGL LOG][Preconditioner.H:121] Generate preconditioner BJ MaxBlockSize 1
[OGL LOG][Proc: 0]p: init_precond: 1.018 [ms]
[OGL LOG][StoppingCriterion.H:237] Creating stopping criterion with minIter 942 frequency 10
[OGL LOG][Proc: 0]p: generate_solver: 0.001 [ms]
[OGL LOG][Proc: 0]p: solve: 894.446 [ms]
[OGL LOG][Proc: 0]p: copy_x_back: 5.496 [ms]
[OGL LOG][lduLduBase.H:330] 
Statistics:
	Time per iteration: 569 [mu s]
	Time per residual norm calculation: 93.000000 [mu s]
	Time per iteration and DOF: 0.071125 [ns]
	Retrieve results bandwidth 2.911000 [GByte/s]
[OGL LOG][Proc: 0]p: solve_multi_gpu: 1090.16 [ms]
BJcudaGKOCG:  Solving for p, Initial residual = 0.813527, Final residual = 7.25744e-05, No Iterations 1571
[INFO] SolveP: 1168.32 [ms]
time step continuity errors : sum local = 9.28834e-09, global = -5.71007e-22, cumulative = -8.21073e-21
[INFO] ContinuityError: 40.387 [ms]
[INFO] CorrectBoundary: 2.907 [ms]
[INFO] PISOStep: 1827.09 [ms]
[INFO] TimeStep: 6951.06 [ms]
ExecutionTime = 22 s  ClockTime = 23 s

Time = 0.001

Courant Number mean: 0.0292898 max: 0.467811
[INFO] MatrixAssemblyU: 329.652 [ms]
DILUPBiCGStab:  Solving for Ux, Initial residual = 0.0345692, Final residual = 0.00111805, No Iterations 5
DILUPBiCGStab:  Solving for Uy, Initial residual = 0.128623, Final residual = 0.00393548, No Iterations 5
DILUPBiCGStab:  Solving for Uz, Initial residual = 0.601759, Final residual = 0.0140841, No Iterations 5
[INFO] MomentumPredictor: 2734.47 [ms]
[INFO] MatrixAssemblyPI: 386.341 [ms]
[INFO] AdjustPhi: 23.779 [ms]
[INFO] ConstrainPressure: 0.002 [ms]
[INFO] MatrixAssemblyPII: 122.588 [ms]
[OGL LOG][Proc: 0]: global_index_init: 0.013 [ms]
[OGL LOG][Proc: 0]p_local_coeffs: call_update: 0 [ms]
[OGL LOG][Proc: 0]p_non_local_coeffs: call_update: 0 [ms]
[OGL LOG][Proc: 0]p: update_local_matrix_data: 73.956 [ms]
[OGL LOG][Proc: 0]p: update_non_local_matrix_data: 0.33 [ms]
[OGL LOG][Proc: 0]p: regenerate_distributed_matrix: 193.23 [ms]
[OGL LOG][Proc: 0]p_matrix: call_update: 194.368 [ms]
[OGL LOG][Proc: 0]p_rhs: call_update: 4.917 [ms]
[OGL LOG][Preconditioner.H:121] Generate preconditioner BJ MaxBlockSize 1
[OGL LOG][Proc: 0]p: init_precond: 1.076 [ms]
[OGL LOG][StoppingCriterion.H:237] Creating stopping criterion with minIter 942 frequency 10
[OGL LOG][Proc: 0]p: generate_solver: 0.002 [ms]
[OGL LOG][Proc: 0]p: solve: 591.631 [ms]
[OGL LOG][Proc: 0]p: copy_x_back: 5.482 [ms]
[OGL LOG][lduLduBase.H:330] 
Statistics:
	Time per iteration: 622 [mu s]
	Time per residual norm calculation: 104.000000 [mu s]
	Time per iteration and DOF: 0.077750 [ns]
	Retrieve results bandwidth 2.918000 [GByte/s]
[OGL LOG][Proc: 0]p: solve_multi_gpu: 798.399 [ms]
BJcudaGKOCG:  Solving for p, Initial residual = 0.76387, Final residual = 5.11182e-05, No Iterations 951
[INFO] SolveP: 884.068 [ms]
time step continuity errors : sum local = 6.5209e-09, global = 2.68128e-21, cumulative = -5.52945e-21
[INFO] ContinuityError: 40.09 [ms]
[INFO] CorrectBoundary: 0.441 [ms]
[INFO] PISOStep: 1588.87 [ms]
[INFO] MatrixAssemblyPI: 353.703 [ms]
[INFO] AdjustPhi: 17.852 [ms]
[INFO] ConstrainPressure: 0.002 [ms]
[INFO] MatrixAssemblyPII: 113.739 [ms]
[OGL LOG][Proc: 0]: global_index_init: 0.013 [ms]
[OGL LOG][Proc: 0]p_local_coeffs: call_update: 0 [ms]
[OGL LOG][Proc: 0]p_non_local_coeffs: call_update: 0 [ms]
[OGL LOG][Proc: 0]p: update_local_matrix_data: 63.891 [ms]
[OGL LOG][Proc: 0]p: update_non_local_matrix_data: 0.207 [ms]
[OGL LOG][Proc: 0]p: regenerate_distributed_matrix: 184.846 [ms]
[OGL LOG][Proc: 0]p_matrix: call_update: 185.766 [ms]
[OGL LOG][Proc: 0]p_rhs: call_update: 1.801 [ms]
[OGL LOG][Preconditioner.H:121] Generate preconditioner BJ MaxBlockSize 1
[OGL LOG][Proc: 0]p: init_precond: 1.03 [ms]
[OGL LOG][StoppingCriterion.H:237] Creating stopping criterion with minIter 570 frequency 8
[OGL LOG][Proc: 0]p: generate_solver: 0.001 [ms]
[OGL LOG][Proc: 0]p: solve: 470.128 [ms]
[OGL LOG][Proc: 0]p: copy_x_back: 5.535 [ms]
[OGL LOG][lduLduBase.H:330] 
Statistics:
	Time per iteration: 617 [mu s]
	Time per residual norm calculation: 91.000000 [mu s]
	Time per iteration and DOF: 0.077125 [ns]
	Retrieve results bandwidth 2.890000 [GByte/s]
[OGL LOG][Proc: 0]p: solve_multi_gpu: 665.407 [ms]
BJcudaGKOCG:  Solving for p, Initial residual = 0.702013, Final residual = 8.65186e-05, No Iterations 761
[INFO] SolveP: 741.307 [ms]
time step continuity errors : sum local = 1.05348e-08, global = -2.44349e-21, cumulative = -7.97294e-21
[INFO] ContinuityError: 39.671 [ms]
[INFO] CorrectBoundary: 0.511 [ms]
[INFO] PISOStep: 1397.17 [ms]
[INFO] TimeStep: 6092.4 [ms]
ExecutionTime = 28.07 s  ClockTime = 29 s

Time = 0.00125

Courant Number mean: 0.033439 max: 0.472819
[INFO] MatrixAssemblyU: 353.932 [ms]
DILUPBiCGStab:  Solving for Ux, Initial residual = 0.0270259, Final residual = 0.00080368, No Iterations 5
DILUPBiCGStab:  Solving for Uy, Initial residual = 0.0807779, Final residual = 0.00307334, No Iterations 5
DILUPBiCGStab:  Solving for Uz, Initial residual = 0.448739, Final residual = 0.0105783, No Iterations 5
[INFO] MomentumPredictor: 2726.53 [ms]
[INFO] MatrixAssemblyPI: 384.708 [ms]
[INFO] AdjustPhi: 23.587 [ms]
[INFO] ConstrainPressure: 0.002 [ms]
[INFO] MatrixAssemblyPII: 122.424 [ms]
[OGL LOG][Proc: 0]: global_index_init: 0.009 [ms]
[OGL LOG][Proc: 0]p_local_coeffs: call_update: 0 [ms]
[OGL LOG][Proc: 0]p_non_local_coeffs: call_update: 0 [ms]
[OGL LOG][Proc: 0]p: update_local_matrix_data: 74.036 [ms]
[OGL LOG][Proc: 0]p: update_non_local_matrix_data: 0.325 [ms]
[OGL LOG][Proc: 0]p: regenerate_distributed_matrix: 192.799 [ms]
[OGL LOG][Proc: 0]p_matrix: call_update: 193.701 [ms]
[OGL LOG][Proc: 0]p_rhs: call_update: 6.312 [ms]
[OGL LOG][Preconditioner.H:121] Generate preconditioner BJ MaxBlockSize 1
[OGL LOG][Proc: 0]p: init_precond: 1.162 [ms]
[OGL LOG][StoppingCriterion.H:237] Creating stopping criterion with minIter 456 frequency 7
[OGL LOG][Proc: 0]p: generate_solver: 0.001 [ms]
[OGL LOG][Proc: 0]p: solve: 488.197 [ms]
[OGL LOG][Proc: 0]p: copy_x_back: 5.694 [ms]
[OGL LOG][lduLduBase.H:330] 
Statistics:
	Time per iteration: 657 [mu s]
	Time per residual norm calculation: 94.000000 [mu s]
	Time per iteration and DOF: 0.082125 [ns]
	Retrieve results bandwidth 2.809000 [GByte/s]
[OGL LOG][Proc: 0]p: solve_multi_gpu: 696.183 [ms]
BJcudaGKOCG:  Solving for p, Initial residual = 0.769675, Final residual = 8.85603e-05, No Iterations 743
[INFO] SolveP: 781.651 [ms]
time step continuity errors : sum local = 8.88433e-09, global = -4.83823e-22, cumulative = -8.45677e-21
[INFO] ContinuityError: 40.6 [ms]
[INFO] CorrectBoundary: 2.959 [ms]
[INFO] PISOStep: 1487.94 [ms]
[INFO] MatrixAssemblyPI: 350.028 [ms]
[INFO] AdjustPhi: 17.491 [ms]
[INFO] ConstrainPressure: 0.002 [ms]
[INFO] MatrixAssemblyPII: 113.776 [ms]
[OGL LOG][Proc: 0]: global_index_init: 0.009 [ms]
[OGL LOG][Proc: 0]p_local_coeffs: call_update: 0 [ms]
[OGL LOG][Proc: 0]p_non_local_coeffs: call_update: 0 [ms]
[OGL LOG][Proc: 0]p: update_local_matrix_data: 63.326 [ms]
[OGL LOG][Proc: 0]p: update_non_local_matrix_data: 0.226 [ms]
[OGL LOG][Proc: 0]p: regenerate_distributed_matrix: 185.022 [ms]
[OGL LOG][Proc: 0]p_matrix: call_update: 185.972 [ms]
[OGL LOG][Proc: 0]p_rhs: call_update: 1.803 [ms]
[OGL LOG][Preconditioner.H:121] Generate preconditioner BJ MaxBlockSize 1
[OGL LOG][Proc: 0]p: init_precond: 1.18 [ms]
[OGL LOG][StoppingCriterion.H:237] Creating stopping criterion with minIter 445 frequency 7
[OGL LOG][Proc: 0]p: generate_solver: 0.001 [ms]
[OGL LOG][Proc: 0]p: solve: 459.459 [ms]
[OGL LOG][Proc: 0]p: copy_x_back: 5.437 [ms]
[OGL LOG][lduLduBase.H:330] 
Statistics:
	Time per iteration: 618 [mu s]
	Time per residual norm calculation: 90.000000 [mu s]
	Time per iteration and DOF: 0.077250 [ns]
	Retrieve results bandwidth 2.942000 [GByte/s]
[OGL LOG][Proc: 0]p: solve_multi_gpu: 655.806 [ms]
BJcudaGKOCG:  Solving for p, Initial residual = 0.719497, Final residual = 8.08622e-05, No Iterations 743
[INFO] SolveP: 730.845 [ms]
time step continuity errors : sum local = 7.88945e-09, global = -2.07202e-21, cumulative = -1.05288e-20
[INFO] ContinuityError: 40.264 [ms]
[INFO] CorrectBoundary: 0.396 [ms]
[INFO] PISOStep: 1379.12 [ms]
[INFO] TimeStep: 5991 [ms]
ExecutionTime = 34.05 s  ClockTime = 35 s

Time = 0.0015

Courant Number mean: 0.0367439 max: 0.475584
[INFO] MatrixAssemblyU: 328.388 [ms]
DILUPBiCGStab:  Solving for Ux, Initial residual = 0.0203089, Final residual = 0.000578143, No Iterations 5
DILUPBiCGStab:  Solving for Uy, Initial residual = 0.0653828, Final residual = 0.00203104, No Iterations 5
DILUPBiCGStab:  Solving for Uz, Initial residual = 0.32533, Final residual = 0.00753407, No Iterations 5
[INFO] MomentumPredictor: 2707.22 [ms]
[INFO] MatrixAssemblyPI: 389.081 [ms]
[INFO] AdjustPhi: 23.799 [ms]
[INFO] ConstrainPressure: 0.002 [ms]
[INFO] MatrixAssemblyPII: 123.612 [ms]
[OGL LOG][Proc: 0]: global_index_init: 0.014 [ms]
[OGL LOG][Proc: 0]p_local_coeffs: call_update: 0 [ms]
[OGL LOG][Proc: 0]p_non_local_coeffs: call_update: 0 [ms]
[OGL LOG][Proc: 0]p: update_local_matrix_data: 73.62 [ms]
[OGL LOG][Proc: 0]p: update_non_local_matrix_data: 0.318 [ms]
[OGL LOG][Proc: 0]p: regenerate_distributed_matrix: 192.876 [ms]
[OGL LOG][Proc: 0]p_matrix: call_update: 193.773 [ms]
[OGL LOG][Proc: 0]p_rhs: call_update: 4.655 [ms]
[OGL LOG][Preconditioner.H:121] Generate preconditioner BJ MaxBlockSize 1
[OGL LOG][Proc: 0]p: init_precond: 1.074 [ms]
[OGL LOG][StoppingCriterion.H:237] Creating stopping criterion with minIter 445 frequency 7
[OGL LOG][Proc: 0]p: generate_solver: 0.001 [ms]
[OGL LOG][Proc: 0]p: solve: 487.605 [ms]
[OGL LOG][Proc: 0]p: copy_x_back: 6.28 [ms]
[OGL LOG][lduLduBase.H:330] 
Statistics:
	Time per iteration: 656 [mu s]
	Time per residual norm calculation: 95.000000 [mu s]
	Time per iteration and DOF: 0.082000 [ns]
	Retrieve results bandwidth 2.547000 [GByte/s]
[OGL LOG][Proc: 0]p: solve_multi_gpu: 694.542 [ms]
BJcudaGKOCG:  Solving for p, Initial residual = 0.674186, Final residual = 9.79819e-05, No Iterations 743
[INFO] SolveP: 779.895 [ms]
time step continuity errors : sum local = 9.88126e-09, global = -1.82755e-22, cumulative = -1.07115e-20
[INFO] ContinuityError: 42.399 [ms]
[INFO] CorrectBoundary: 0.517 [ms]
[INFO] PISOStep: 1494.86 [ms]
[INFO] MatrixAssemblyPI: 352.517 [ms]
[INFO] AdjustPhi: 17.65 [ms]
[INFO] ConstrainPressure: 0.002 [ms]
[INFO] MatrixAssemblyPII: 113.355 [ms]
[OGL LOG][Proc: 0]: global_index_init: 0.01 [ms]
[OGL LOG][Proc: 0]p_local_coeffs: call_update: 0 [ms]
[OGL LOG][Proc: 0]p_non_local_coeffs: call_update: 0 [ms]
[OGL LOG][Proc: 0]p: update_local_matrix_data: 65.207 [ms]
[OGL LOG][Proc: 0]p: update_non_local_matrix_data: 0.214 [ms]
[OGL LOG][Proc: 0]p: regenerate_distributed_matrix: 187.265 [ms]
[OGL LOG][Proc: 0]p_matrix: call_update: 188.272 [ms]
[OGL LOG][Proc: 0]p_rhs: call_update: 1.835 [ms]
[OGL LOG][Preconditioner.H:121] Generate preconditioner BJ MaxBlockSize 1
[OGL LOG][Proc: 0]p: init_precond: 0.997 [ms]
[OGL LOG][StoppingCriterion.H:237] Creating stopping criterion with minIter 445 frequency 7
[OGL LOG][Proc: 0]p: generate_solver: 0.001 [ms]
[OGL LOG][Proc: 0]p: solve: 457.675 [ms]
[OGL LOG][Proc: 0]p: copy_x_back: 5.53 [ms]
[OGL LOG][lduLduBase.H:330] 
Statistics:
	Time per iteration: 621 [mu s]
	Time per residual norm calculation: 93.000000 [mu s]
	Time per iteration and DOF: 0.077625 [ns]
	Retrieve results bandwidth 2.893000 [GByte/s]
[OGL LOG][Proc: 0]p: solve_multi_gpu: 655.328 [ms]
BJcudaGKOCG:  Solving for p, Initial residual = 0.614079, Final residual = 9.83305e-05, No Iterations 736
[INFO] SolveP: 732.466 [ms]
time step continuity errors : sum local = 9.24817e-09, global = 2.06123e-22, cumulative = -1.05054e-20
[INFO] ContinuityError: 39.875 [ms]
[INFO] CorrectBoundary: 0.399 [ms]
[INFO] PISOStep: 1382.41 [ms]
[INFO] TimeStep: 5953.41 [ms]
ExecutionTime = 39.99 s  ClockTime = 41 s

Time = 0.00175

Courant Number mean: 0.039661 max: 0.477536
[INFO] MatrixAssemblyU: 352.669 [ms]
DILUPBiCGStab:  Solving for Ux, Initial residual = 0.017343, Final residual = 0.000456507, No Iterations 5
DILUPBiCGStab:  Solving for Uy, Initial residual = 0.0485651, Final residual = 0.00148799, No Iterations 5
DILUPBiCGStab:  Solving for Uz, Initial residual = 0.250681, Final residual = 0.00692324, No Iterations 5
[INFO] MomentumPredictor: 2718.92 [ms]
[INFO] MatrixAssemblyPI: 384.633 [ms]
[INFO] AdjustPhi: 23.691 [ms]
[INFO] ConstrainPressure: 0.002 [ms]
[INFO] MatrixAssemblyPII: 122.866 [ms]
[OGL LOG][Proc: 0]: global_index_init: 0.112 [ms]
[OGL LOG][Proc: 0]p_local_coeffs: call_update: 0 [ms]
[OGL LOG][Proc: 0]p_non_local_coeffs: call_update: 0 [ms]
[OGL LOG][Proc: 0]p: update_local_matrix_data: 74.213 [ms]
[OGL LOG][Proc: 0]p: update_non_local_matrix_data: 0.223 [ms]
[OGL LOG][Proc: 0]p: regenerate_distributed_matrix: 194.746 [ms]
[OGL LOG][Proc: 0]p_matrix: call_update: 195.935 [ms]
[OGL LOG][Proc: 0]p_rhs: call_update: 4.774 [ms]
[OGL LOG][Preconditioner.H:121] Generate preconditioner BJ MaxBlockSize 1
[OGL LOG][Proc: 0]p: init_precond: 1.047 [ms]
[OGL LOG][StoppingCriterion.H:237] Creating stopping criterion with minIter 441 frequency 7
[OGL LOG][Proc: 0]p: generate_solver: 0.001 [ms]
[OGL LOG][Proc: 0]p: solve: 902 [ms]
[OGL LOG][Proc: 0]p: copy_x_back: 5.622 [ms]
[OGL LOG][lduLduBase.H:330] 
Statistics:
	Time per iteration: 596 [mu s]
	Time per residual norm calculation: 91.000000 [mu s]
	Time per iteration and DOF: 0.074500 [ns]
	Retrieve results bandwidth 2.845000 [GByte/s]
[OGL LOG][Proc: 0]p: solve_multi_gpu: 1110.75 [ms]
BJcudaGKOCG:  Solving for p, Initial residual = 0.669401, Final residual = 8.63861e-05, No Iterations 1513
[INFO] SolveP: 1195.98 [ms]
time step continuity errors : sum local = 6.52314e-09, global = -2.58269e-22, cumulative = -1.07637e-20
[INFO] ContinuityError: 40.247 [ms]
[INFO] CorrectBoundary: 0.412 [ms]
[INFO] PISOStep: 1901.9 [ms]
[INFO] MatrixAssemblyPI: 352.316 [ms]
[INFO] AdjustPhi: 17.505 [ms]
[INFO] ConstrainPressure: 0.002 [ms]
[INFO] MatrixAssemblyPII: 113.247 [ms]
[OGL LOG][Proc: 0]: global_index_init: 0.014 [ms]
[OGL LOG][Proc: 0]p_local_coeffs: call_update: 0 [ms]
[OGL LOG][Proc: 0]p_non_local_coeffs: call_update: 0 [ms]
[OGL LOG][Proc: 0]p: update_local_matrix_data: 64.114 [ms]
[OGL LOG][Proc: 0]p: update_non_local_matrix_data: 0.21 [ms]
[OGL LOG][Proc: 0]p: regenerate_distributed_matrix: 186.685 [ms]
[OGL LOG][Proc: 0]p_matrix: call_update: 187.714 [ms]
[OGL LOG][Proc: 0]p_rhs: call_update: 1.808 [ms]
[OGL LOG][Preconditioner.H:121] Generate preconditioner BJ MaxBlockSize 1
[OGL LOG][Proc: 0]p: init_precond: 1.063 [ms]
[OGL LOG][StoppingCriterion.H:237] Creating stopping criterion with minIter 907 frequency 10
[OGL LOG][Proc: 0]p: generate_solver: 0.001 [ms]
[OGL LOG][Proc: 0]p: solve: 862.413 [ms]
[OGL LOG][Proc: 0]p: copy_x_back: 6.691 [ms]
[OGL LOG][lduLduBase.H:330] 
Statistics:
	Time per iteration: 570 [mu s]
	Time per residual norm calculation: 98.000000 [mu s]
	Time per iteration and DOF: 0.071250 [ns]
	Retrieve results bandwidth 2.391000 [GByte/s]
[OGL LOG][Proc: 0]p: solve_multi_gpu: 1061.25 [ms]
BJcudaGKOCG:  Solving for p, Initial residual = 0.610377, Final residual = 8.27534e-05, No Iterations 1511
[INFO] SolveP: 1136.57 [ms]
time step continuity errors : sum local = 6.21787e-09, global = -2.07033e-21, cumulative = -1.2834e-20
[INFO] ContinuityError: 40.584 [ms]
[INFO] CorrectBoundary: 0.517 [ms]
[INFO] PISOStep: 1789.13 [ms]
[INFO] TimeStep: 6802.89 [ms]
ExecutionTime = 46.78 s  ClockTime = 48 s

Time = 0.002

Courant Number mean: 0.0421872 max: 0.47923
[INFO] MatrixAssemblyU: 330.804 [ms]
DILUPBiCGStab:  Solving for Ux, Initial residual = 0.0142042, Final residual = 0.000349984, No Iterations 5
DILUPBiCGStab:  Solving for Uy, Initial residual = 0.0414037, Final residual = 0.00112866, No Iterations 5
DILUPBiCGStab:  Solving for Uz, Initial residual = 0.195006, Final residual = 0.0052042, No Iterations 5
[INFO] MomentumPredictor: 2753.91 [ms]
[INFO] MatrixAssemblyPI: 387.008 [ms]
[INFO] AdjustPhi: 23.846 [ms]
[INFO] ConstrainPressure: 0.002 [ms]
[INFO] MatrixAssemblyPII: 123.041 [ms]
[OGL LOG][Proc: 0]: global_index_init: 0.01 [ms]
[OGL LOG][Proc: 0]p_local_coeffs: call_update: 0 [ms]
[OGL LOG][Proc: 0]p_non_local_coeffs: call_update: 0 [ms]
[OGL LOG][Proc: 0]p: update_local_matrix_data: 74.283 [ms]
[OGL LOG][Proc: 0]p: update_non_local_matrix_data: 0.324 [ms]
[OGL LOG][Proc: 0]p: regenerate_distributed_matrix: 192.641 [ms]
[OGL LOG][Proc: 0]p_matrix: call_update: 193.587 [ms]
[OGL LOG][Proc: 0]p_rhs: call_update: 4.8 [ms]
[OGL LOG][Preconditioner.H:121] Generate preconditioner BJ MaxBlockSize 1
[OGL LOG][Proc: 0]p: init_precond: 1.122 [ms]
[OGL LOG][StoppingCriterion.H:237] Creating stopping criterion with minIter 906 frequency 10
[OGL LOG][Proc: 0]p: generate_solver: 0.001 [ms]
[OGL LOG][Proc: 0]p: solve: 955.325 [ms]
[OGL LOG][Proc: 0]p: copy_x_back: 5.561 [ms]
[OGL LOG][lduLduBase.H:330] 
Statistics:
	Time per iteration: 628 [mu s]
	Time per residual norm calculation: 97.000000 [mu s]
	Time per iteration and DOF: 0.078500 [ns]
	Retrieve results bandwidth 2.877000 [GByte/s]
[OGL LOG][Proc: 0]p: solve_multi_gpu: 1161.47 [ms]
BJcudaGKOCG:  Solving for p, Initial residual = 0.57694, Final residual = 8.04605e-05, No Iterations 1521
[INFO] SolveP: 1247.7 [ms]
time step continuity errors : sum local = 5.79133e-09, global = 8.76637e-22, cumulative = -1.19574e-20
[INFO] ContinuityError: 39.84 [ms]
[INFO] CorrectBoundary: 1.322 [ms]
[INFO] PISOStep: 1955.8 [ms]
[INFO] MatrixAssemblyPI: 353.808 [ms]
[INFO] AdjustPhi: 17.565 [ms]
[INFO] ConstrainPressure: 0.002 [ms]
[INFO] MatrixAssemblyPII: 113.285 [ms]
[OGL LOG][Proc: 0]: global_index_init: 0.009 [ms]
[OGL LOG][Proc: 0]p_local_coeffs: call_update: 0 [ms]
[OGL LOG][Proc: 0]p_non_local_coeffs: call_update: 0 [ms]
[OGL LOG][Proc: 0]p: update_local_matrix_data: 63.467 [ms]
[OGL LOG][Proc: 0]p: update_non_local_matrix_data: 0.215 [ms]
[OGL LOG][Proc: 0]p: regenerate_distributed_matrix: 210.467 [ms]
[OGL LOG][Proc: 0]p_matrix: call_update: 211.322 [ms]
[OGL LOG][Proc: 0]p_rhs: call_update: 1.69 [ms]
[OGL LOG][Preconditioner.H:121] Generate preconditioner BJ MaxBlockSize 1
[OGL LOG][Proc: 0]p: init_precond: 1.051 [ms]
[OGL LOG][StoppingCriterion.H:237] Creating stopping criterion with minIter 912 frequency 10
[OGL LOG][Proc: 0]p: generate_solver: 0.001 [ms]
[OGL LOG][Proc: 0]p: solve: 861.424 [ms]
[OGL LOG][Proc: 0]p: copy_x_back: 5.426 [ms]
[OGL LOG][lduLduBase.H:330] 
Statistics:
	Time per iteration: 570 [mu s]
	Time per residual norm calculation: 90.000000 [mu s]
	Time per iteration and DOF: 0.071250 [ns]
	Retrieve results bandwidth 2.948000 [GByte/s]
[OGL LOG][Proc: 0]p: solve_multi_gpu: 1081.8 [ms]
BJcudaGKOCG:  Solving for p, Initial residual = 0.519846, Final residual = 9.18009e-05, No Iterations 1511
[INFO] SolveP: 1157.34 [ms]
time step continuity errors : sum local = 6.59213e-09, global = -6.9629e-22, cumulative = -1.26537e-20
[INFO] ContinuityError: 40.281 [ms]
[INFO] CorrectBoundary: 2.421 [ms]
[INFO] PISOStep: 1810.95 [ms]
[INFO] TimeStep: 6891.99 [ms]
ExecutionTime = 53.66 s  ClockTime = 55 s

Time = 0.00225

Courant Number mean: 0.0444723 max: 0.480385
[INFO] MatrixAssemblyU: 351.564 [ms]
DILUPBiCGStab:  Solving for Ux, Initial residual = 0.0125023, Final residual = 0.000286698, No Iterations 5
DILUPBiCGStab:  Solving for Uy, Initial residual = 0.0332815, Final residual = 0.000787308, No Iterations 5
DILUPBiCGStab:  Solving for Uz, Initial residual = 0.156755, Final residual = 0.00492059, No Iterations 5
[INFO] MomentumPredictor: 2710.13 [ms]
[INFO] MatrixAssemblyPI: 386.49 [ms]
[INFO] AdjustPhi: 23.562 [ms]
[INFO] ConstrainPressure: 0.002 [ms]
[INFO] MatrixAssemblyPII: 122.669 [ms]
[OGL LOG][Proc: 0]: global_index_init: 0.037 [ms]
[OGL LOG][Proc: 0]p_local_coeffs: call_update: 0 [ms]
[OGL LOG][Proc: 0]p_non_local_coeffs: call_update: 0 [ms]
[OGL LOG][Proc: 0]p: update_local_matrix_data: 74.017 [ms]
[OGL LOG][Proc: 0]p: update_non_local_matrix_data: 0.309 [ms]
[OGL LOG][Proc: 0]p: regenerate_distributed_matrix: 194.588 [ms]
[OGL LOG][Proc: 0]p_matrix: call_update: 195.464 [ms]
[OGL LOG][Proc: 0]p_rhs: call_update: 4.606 [ms]
[OGL LOG][Preconditioner.H:121] Generate preconditioner BJ MaxBlockSize 1
[OGL LOG][Proc: 0]p: init_precond: 1.056 [ms]
[OGL LOG][StoppingCriterion.H:237] Creating stopping criterion with minIter 906 frequency 10
[OGL LOG][Proc: 0]p: generate_solver: 0.001 [ms]
[OGL LOG][Proc: 0]p: solve: 883.294 [ms]
[OGL LOG][Proc: 0]p: copy_x_back: 6.309 [ms]
[OGL LOG][lduLduBase.H:330] 
Statistics:
	Time per iteration: 592 [mu s]
	Time per residual norm calculation: 98.000000 [mu s]
	Time per iteration and DOF: 0.074000 [ns]
	Retrieve results bandwidth 2.536000 [GByte/s]
[OGL LOG][Proc: 0]p: solve_multi_gpu: 1092.28 [ms]
BJcudaGKOCG:  Solving for p, Initial residual = 0.56303, Final residual = 9.80477e-05, No Iterations 1491
[INFO] SolveP: 1177.7 [ms]
time step continuity errors : sum local = 6.11868e-09, global = -2.40878e-21, cumulative = -1.50625e-20
[INFO] ContinuityError: 42.155 [ms]
[INFO] CorrectBoundary: 0.407 [ms]
[INFO] PISOStep: 1886.74 [ms]
[INFO] MatrixAssemblyPI: 346.867 [ms]
[INFO] AdjustPhi: 17.492 [ms]
[INFO] ConstrainPressure: 0.002 [ms]
[INFO] MatrixAssemblyPII: 112.823 [ms]
[OGL LOG][Proc: 0]: global_index_init: 0.009 [ms]
[OGL LOG][Proc: 0]p_local_coeffs: call_update: 0 [ms]
[OGL LOG][Proc: 0]p_non_local_coeffs: call_update: 0 [ms]
[OGL LOG][Proc: 0]p: update_local_matrix_data: 65.489 [ms]
[OGL LOG][Proc: 0]p: update_non_local_matrix_data: 0.213 [ms]
[OGL LOG][Proc: 0]p: regenerate_distributed_matrix: 187.276 [ms]
[OGL LOG][Proc: 0]p_matrix: call_update: 188.626 [ms]
[OGL LOG][Proc: 0]p_rhs: call_update: 1.863 [ms]
[OGL LOG][Preconditioner.H:121] Generate preconditioner BJ MaxBlockSize 1
[OGL LOG][Proc: 0]p: init_precond: 1.218 [ms]
[OGL LOG][StoppingCriterion.H:237] Creating stopping criterion with minIter 894 frequency 9
[OGL LOG][Proc: 0]p: generate_solver: 0.001 [ms]
[OGL LOG][Proc: 0]p: solve: 849.943 [ms]
[OGL LOG][Proc: 0]p: copy_x_back: 5.467 [ms]
[OGL LOG][lduLduBase.H:330] 
Statistics:
	Time per iteration: 571 [mu s]
	Time per residual norm calculation: 90.000000 [mu s]
	Time per iteration and DOF: 0.071375 [ns]
	Retrieve results bandwidth 2.926000 [GByte/s]
[OGL LOG][Proc: 0]p: solve_multi_gpu: 1048.11 [ms]
BJcudaGKOCG:  Solving for p, Initial residual = 0.502802, Final residual = 9.90455e-05, No Iterations 1486
[INFO] SolveP: 1126.33 [ms]
time step continuity errors : sum local = 6.18048e-09, global = -2.18858e-21, cumulative = -1.7251e-20
[INFO] ContinuityError: 41.586 [ms]
[INFO] CorrectBoundary: 2.049 [ms]
[INFO] PISOStep: 1772.61 [ms]
[INFO] TimeStep: 6761.23 [ms]
ExecutionTime = 60.4 s  ClockTime = 61 s

Time = 0.0025

Courant Number mean: 0.046526 max: 0.481483
[INFO] MatrixAssemblyU: 329.166 [ms]
DILUPBiCGStab:  Solving for Ux, Initial residual = 0.0107499, Final residual = 0.000230519, No Iterations 5
DILUPBiCGStab:  Solving for Uy, Initial residual = 0.0291865, Final residual = 0.000635052, No Iterations 5
DILUPBiCGStab:  Solving for Uz, Initial residual = 0.126031, Final residual = 0.00393425, No Iterations 5
[INFO] MomentumPredictor: 2716.13 [ms]
[INFO] MatrixAssemblyPI: 384.459 [ms]
[INFO] AdjustPhi: 23.776 [ms]
[INFO] ConstrainPressure: 0.003 [ms]
[INFO] MatrixAssemblyPII: 122.932 [ms]
[OGL LOG][Proc: 0]: global_index_init: 0.01 [ms]
[OGL LOG][Proc: 0]p_local_coeffs: call_update: 0 [ms]
[OGL LOG][Proc: 0]p_non_local_coeffs: call_update: 0 [ms]
[OGL LOG][Proc: 0]p: update_local_matrix_data: 74.073 [ms]
[OGL LOG][Proc: 0]p: update_non_local_matrix_data: 0.215 [ms]
[OGL LOG][Proc: 0]p: regenerate_distributed_matrix: 193.093 [ms]
[OGL LOG][Proc: 0]p_matrix: call_update: 194.432 [ms]
[OGL LOG][Proc: 0]p_rhs: call_update: 4.887 [ms]
[OGL LOG][Preconditioner.H:121] Generate preconditioner BJ MaxBlockSize 1
[OGL LOG][Proc: 0]p: init_precond: 0.998 [ms]
[OGL LOG][StoppingCriterion.H:237] Creating stopping criterion with minIter 891 frequency 9
[OGL LOG][Proc: 0]p: generate_solver: 0.001 [ms]
[OGL LOG][Proc: 0]p: solve: 882.024 [ms]
[OGL LOG][Proc: 0]p: copy_x_back: 5.463 [ms]
[OGL LOG][lduLduBase.H:330] 
Statistics:
	Time per iteration: 589 [mu s]
	Time per residual norm calculation: 95.000000 [mu s]
	Time per iteration and DOF: 0.073625 [ns]
	Retrieve results bandwidth 2.928000 [GByte/s]
[OGL LOG][Proc: 0]p: solve_multi_gpu: 1088.66 [ms]
BJcudaGKOCG:  Solving for p, Initial residual = 0.485695, Final residual = 9.20828e-05, No Iterations 1495
[INFO] SolveP: 1174.8 [ms]
time step continuity errors : sum local = 5.5836e-09, global = 1.00955e-21, cumulative = -1.62415e-20
[INFO] ContinuityError: 89.264 [ms]
[INFO] CorrectBoundary: 1.244 [ms]
[INFO] PISOStep: 1928.12 [ms]
[INFO] MatrixAssemblyPI: 352.246 [ms]
[INFO] AdjustPhi: 17.588 [ms]
[INFO] ConstrainPressure: 0.002 [ms]
[INFO] MatrixAssemblyPII: 113.866 [ms]
[OGL LOG][Proc: 0]: global_index_init: 0.008 [ms]
[OGL LOG][Proc: 0]p_local_coeffs: call_update: 0 [ms]
[OGL LOG][Proc: 0]p_non_local_coeffs: call_update: 0 [ms]
[OGL LOG][Proc: 0]p: update_local_matrix_data: 63.561 [ms]
[OGL LOG][Proc: 0]p: update_non_local_matrix_data: 0.211 [ms]
[OGL LOG][Proc: 0]p: regenerate_distributed_matrix: 186.015 [ms]
[OGL LOG][Proc: 0]p_matrix: call_update: 187.029 [ms]
[OGL LOG][Proc: 0]p_rhs: call_update: 1.845 [ms]
[OGL LOG][Preconditioner.H:121] Generate preconditioner BJ MaxBlockSize 1
[OGL LOG][Proc: 0]p: init_precond: 1.013 [ms]
[OGL LOG][StoppingCriterion.H:237] Creating stopping criterion with minIter 897 frequency 9
[OGL LOG][Proc: 0]p: generate_solver: 0.001 [ms]
[OGL LOG][Proc: 0]p: solve: 849.936 [ms]
[OGL LOG][Proc: 0]p: copy_x_back: 5.547 [ms]
[OGL LOG][lduLduBase.H:330] 
Statistics:
	Time per iteration: 571 [mu s]
	Time per residual norm calculation: 89.000000 [mu s]
	Time per iteration and DOF: 0.071375 [ns]
	Retrieve results bandwidth 2.884000 [GByte/s]
[OGL LOG][Proc: 0]p: solve_multi_gpu: 1046.76 [ms]
BJcudaGKOCG:  Solving for p, Initial residual = 0.433738, Final residual = 9.96755e-05, No Iterations 1486
[INFO] SolveP: 1121.91 [ms]
time step continuity errors : sum local = 6.01794e-09, global = -2.00574e-21, cumulative = -1.82472e-20
[INFO] ContinuityError: 40.034 [ms]
[INFO] CorrectBoundary: 0.425 [ms]
[INFO] PISOStep: 1771.59 [ms]
[INFO] TimeStep: 6785.32 [ms]
ExecutionTime = 67.18 s  ClockTime = 68 s

Time = 0.00275

Courant Number mean: 0.0484126 max: 0.482259
[INFO] MatrixAssemblyU: 352.445 [ms]
DILUPBiCGStab:  Solving for Ux, Initial residual = 0.00963637, Final residual = 0.000193717, No Iterations 5
DILUPBiCGStab:  Solving for Uy, Initial residual = 0.0246776, Final residual = 0.000447342, No Iterations 5
DILUPBiCGStab:  Solving for Uz, Initial residual = 0.105318, Final residual = 0.00375399, No Iterations 5
[INFO] MomentumPredictor: 2711.38 [ms]
[INFO] MatrixAssemblyPI: 385.969 [ms]
[INFO] AdjustPhi: 23.679 [ms]
[INFO] ConstrainPressure: 0.002 [ms]
[INFO] MatrixAssemblyPII: 122.321 [ms]
[OGL LOG][Proc: 0]: global_index_init: 0.014 [ms]
[OGL LOG][Proc: 0]p_local_coeffs: call_update: 0 [ms]
[OGL LOG][Proc: 0]p_non_local_coeffs: call_update: 0 [ms]
[OGL LOG][Proc: 0]p: update_local_matrix_data: 73.56 [ms]
[OGL LOG][Proc: 0]p: update_non_local_matrix_data: 0.3 [ms]
[OGL LOG][Proc: 0]p: regenerate_distributed_matrix: 194.416 [ms]
[OGL LOG][Proc: 0]p_matrix: call_update: 195.47 [ms]
[OGL LOG][Proc: 0]p_rhs: call_update: 4.711 [ms]
[OGL LOG][Preconditioner.H:121] Generate preconditioner BJ MaxBlockSize 1
[OGL LOG][Proc: 0]p: init_precond: 1.063 [ms]
[OGL LOG][StoppingCriterion.H:237] Creating stopping criterion with minIter 891 frequency 9
[OGL LOG][Proc: 0]p: generate_solver: 0.001 [ms]
[OGL LOG][Proc: 0]p: solve: 881.987 [ms]
[OGL LOG][Proc: 0]p: copy_x_back: 6.324 [ms]
[OGL LOG][lduLduBase.H:330] 
Statistics:
	Time per iteration: 593 [mu s]
	Time per residual norm calculation: 96.000000 [mu s]
	Time per iteration and DOF: 0.074125 [ns]
	Retrieve results bandwidth 2.530000 [GByte/s]
[OGL LOG][Proc: 0]p: solve_multi_gpu: 1091.12 [ms]
BJcudaGKOCG:  Solving for p, Initial residual = 0.460864, Final residual = 7.63733e-05, No Iterations 1486
[INFO] SolveP: 1175.84 [ms]
time step continuity errors : sum local = 4.19253e-09, global = -1.08099e-22, cumulative = -1.83553e-20
[INFO] ContinuityError: 42.278 [ms]
[INFO] CorrectBoundary: 0.418 [ms]
[INFO] PISOStep: 1884.78 [ms]
[INFO] MatrixAssemblyPI: 349.283 [ms]
[INFO] AdjustPhi: 17.432 [ms]
[INFO] ConstrainPressure: 0.003 [ms]
[INFO] MatrixAssemblyPII: 113.538 [ms]
[OGL LOG][Proc: 0]: global_index_init: 0.01 [ms]
[OGL LOG][Proc: 0]p_local_coeffs: call_update: 0 [ms]
[OGL LOG][Proc: 0]p_non_local_coeffs: call_update: 0 [ms]
[OGL LOG][Proc: 0]p: update_local_matrix_data: 65.227 [ms]
[OGL LOG][Proc: 0]p: update_non_local_matrix_data: 0.214 [ms]
[OGL LOG][Proc: 0]p: regenerate_distributed_matrix: 188.315 [ms]
[OGL LOG][Proc: 0]p_matrix: call_update: 189.54 [ms]
[OGL LOG][Proc: 0]p_rhs: call_update: 1.952 [ms]
[OGL LOG][Preconditioner.H:121] Generate preconditioner BJ MaxBlockSize 1
[OGL LOG][Proc: 0]p: init_precond: 1.073 [ms]
[OGL LOG][StoppingCriterion.H:237] Creating stopping criterion with minIter 891 frequency 9
[OGL LOG][Proc: 0]p: generate_solver: 0.001 [ms]
[OGL LOG][Proc: 0]p: solve: 847.152 [ms]
[OGL LOG][Proc: 0]p: copy_x_back: 5.508 [ms]
[OGL LOG][lduLduBase.H:330] 
Statistics:
	Time per iteration: 573 [mu s]
	Time per residual norm calculation: 91.000000 [mu s]
	Time per iteration and DOF: 0.071625 [ns]
	Retrieve results bandwidth 2.904000 [GByte/s]
[OGL LOG][Proc: 0]p: solve_multi_gpu: 1046.37 [ms]
BJcudaGKOCG:  Solving for p, Initial residual = 0.407013, Final residual = 9.28601e-05, No Iterations 1477
[INFO] SolveP: 1123.36 [ms]
time step continuity errors : sum local = 5.10422e-09, global = -5.26352e-22, cumulative = -1.88817e-20
[INFO] ContinuityError: 40.316 [ms]
[INFO] CorrectBoundary: 0.578 [ms]
[INFO] PISOStep: 1770.12 [ms]
[INFO] TimeStep: 6760.55 [ms]
ExecutionTime = 73.93 s  ClockTime = 75 s

Time = 0.003

Courant Number mean: 0.050144 max: 0.483045
[INFO] MatrixAssemblyU: 328.859 [ms]
DILUPBiCGStab:  Solving for Ux, Initial residual = 0.00854612, Final residual = 0.000161712, No Iterations 5
DILUPBiCGStab:  Solving for Uy, Initial residual = 0.0220598, Final residual = 0.000365402, No Iterations 5
DILUPBiCGStab:  Solving for Uz, Initial residual = 0.087725, Final residual = 0.0031149, No Iterations 5
[INFO] MomentumPredictor: 2719.93 [ms]
[INFO] MatrixAssemblyPI: 385.047 [ms]
[INFO] AdjustPhi: 24.029 [ms]
[INFO] ConstrainPressure: 0.002 [ms]
[INFO] MatrixAssemblyPII: 123.104 [ms]
[OGL LOG][Proc: 0]: global_index_init: 0.012 [ms]
[OGL LOG][Proc: 0]p_local_coeffs: call_update: 0 [ms]
[OGL LOG][Proc: 0]p_non_local_coeffs: call_update: 0 [ms]
[OGL LOG][Proc: 0]p: update_local_matrix_data: 74.465 [ms]
[OGL LOG][Proc: 0]p: update_non_local_matrix_data: 0.208 [ms]
[OGL LOG][Proc: 0]p: regenerate_distributed_matrix: 192.657 [ms]
[OGL LOG][Proc: 0]p_matrix: call_update: 193.904 [ms]
[OGL LOG][Proc: 0]p_rhs: call_update: 5.212 [ms]
[OGL LOG][Preconditioner.H:121] Generate preconditioner BJ MaxBlockSize 1
[OGL LOG][Proc: 0]p: init_precond: 1.069 [ms]
[OGL LOG][StoppingCriterion.H:237] Creating stopping criterion with minIter 886 frequency 9
[OGL LOG][Proc: 0]p: generate_solver: 0.001 [ms]
[OGL LOG][Proc: 0]p: solve: 884.723 [ms]
[OGL LOG][Proc: 0]p: copy_x_back: 5.305 [ms]
[OGL LOG][lduLduBase.H:330] 
Statistics:
	Time per iteration: 595 [mu s]
	Time per residual norm calculation: 98.000000 [mu s]
	Time per iteration and DOF: 0.074375 [ns]
	Retrieve results bandwidth 3.016000 [GByte/s]
[OGL LOG][Proc: 0]p: solve_multi_gpu: 1097.01 [ms]
BJcudaGKOCG:  Solving for p, Initial residual = 0.403378, Final residual = 8.07179e-05, No Iterations 1486
[INFO] SolveP: 1182.04 [ms]
time step continuity errors : sum local = 4.30773e-09, global = 2.34591e-22, cumulative = -1.86471e-20
[INFO] ContinuityError: 41.098 [ms]
[INFO] CorrectBoundary: 3.355 [ms]
[INFO] PISOStep: 1890.31 [ms]
[INFO] MatrixAssemblyPI: 349.302 [ms]
[INFO] AdjustPhi: 17.596 [ms]
[INFO] ConstrainPressure: 0.002 [ms]
[INFO] MatrixAssemblyPII: 113.147 [ms]
[OGL LOG][Proc: 0]: global_index_init: 0.009 [ms]
[OGL LOG][Proc: 0]p_local_coeffs: call_update: 0 [ms]
[OGL LOG][Proc: 0]p_non_local_coeffs: call_update: 0 [ms]
[OGL LOG][Proc: 0]p: update_local_matrix_data: 64.03 [ms]
[OGL LOG][Proc: 0]p: update_non_local_matrix_data: 0.319 [ms]
[OGL LOG][Proc: 0]p: regenerate_distributed_matrix: 185.448 [ms]
[OGL LOG][Proc: 0]p_matrix: call_update: 186.426 [ms]
[OGL LOG][Proc: 0]p_rhs: call_update: 1.819 [ms]
[OGL LOG][Preconditioner.H:121] Generate preconditioner BJ MaxBlockSize 1
[OGL LOG][Proc: 0]p: init_precond: 1.061 [ms]
[OGL LOG][StoppingCriterion.H:237] Creating stopping criterion with minIter 891 frequency 9
[OGL LOG][Proc: 0]p: generate_solver: 0.001 [ms]
[OGL LOG][Proc: 0]p: solve: 847.924 [ms]
[OGL LOG][Proc: 0]p: copy_x_back: 5.491 [ms]
[OGL LOG][lduLduBase.H:330] 
Statistics:
	Time per iteration: 574 [mu s]
	Time per residual norm calculation: 90.000000 [mu s]
	Time per iteration and DOF: 0.071750 [ns]
	Retrieve results bandwidth 2.913000 [GByte/s]
[OGL LOG][Proc: 0]p: solve_multi_gpu: 1043.72 [ms]
BJcudaGKOCG:  Solving for p, Initial residual = 0.357478, Final residual = 9.7505e-05, No Iterations 1477
[INFO] SolveP: 1119.83 [ms]
time step continuity errors : sum local = 5.18034e-09, global = -1.82385e-21, cumulative = -2.04709e-20
[INFO] ContinuityError: 41.432 [ms]
[INFO] CorrectBoundary: 0.404 [ms]
[INFO] PISOStep: 1767.66 [ms]
[INFO] TimeStep: 6747.44 [ms]
ExecutionTime = 80.65 s  ClockTime = 82 s

Time = 0.00325

Courant Number mean: 0.051752 max: 0.483612
[INFO] MatrixAssemblyU: 353.358 [ms]
DILUPBiCGStab:  Solving for Ux, Initial residual = 0.00776315, Final residual = 0.000138596, No Iterations 5
DILUPBiCGStab:  Solving for Uy, Initial residual = 0.0193037, Final residual = 0.000273614, No Iterations 5
DILUPBiCGStab:  Solving for Uz, Initial residual = 0.0749144, Final residual = 0.00292643, No Iterations 5
[INFO] MomentumPredictor: 2711.87 [ms]
[INFO] MatrixAssemblyPI: 383.19 [ms]
[INFO] AdjustPhi: 23.716 [ms]
[INFO] ConstrainPressure: 0.003 [ms]
[INFO] MatrixAssemblyPII: 122.257 [ms]
[OGL LOG][Proc: 0]: global_index_init: 0.013 [ms]
[OGL LOG][Proc: 0]p_local_coeffs: call_update: 0 [ms]
[OGL LOG][Proc: 0]p_non_local_coeffs: call_update: 0 [ms]
[OGL LOG][Proc: 0]p: update_local_matrix_data: 73.741 [ms]
[OGL LOG][Proc: 0]p: update_non_local_matrix_data: 0.218 [ms]
[OGL LOG][Proc: 0]p: regenerate_distributed_matrix: 195.376 [ms]
[OGL LOG][Proc: 0]p_matrix: call_update: 196.498 [ms]
[OGL LOG][Proc: 0]p_rhs: call_update: 4.805 [ms]
[OGL LOG][Preconditioner.H:121] Generate preconditioner BJ MaxBlockSize 1
[OGL LOG][Proc: 0]p: init_precond: 1.036 [ms]
[OGL LOG][StoppingCriterion.H:237] Creating stopping criterion with minIter 886 frequency 9
[OGL LOG][Proc: 0]p: generate_solver: 0.002 [ms]
[OGL LOG][Proc: 0]p: solve: 873.275 [ms]
[OGL LOG][Proc: 0]p: copy_x_back: 6.424 [ms]
[OGL LOG][lduLduBase.H:330] 
Statistics:
	Time per iteration: 591 [mu s]
	Time per residual norm calculation: 93.000000 [mu s]
	Time per iteration and DOF: 0.073875 [ns]
	Retrieve results bandwidth 2.490000 [GByte/s]
[OGL LOG][Proc: 0]p: solve_multi_gpu: 1083.64 [ms]
BJcudaGKOCG:  Solving for p, Initial residual = 0.372829, Final residual = 9.11196e-05, No Iterations 1477
[INFO] SolveP: 1168.86 [ms]
time step continuity errors : sum local = 4.55732e-09, global = -2.78715e-21, cumulative = -2.32581e-20
[INFO] ContinuityError: 40.52 [ms]
[INFO] CorrectBoundary: 0.559 [ms]
[INFO] PISOStep: 1873.62 [ms]
[INFO] MatrixAssemblyPI: 350.398 [ms]
[INFO] AdjustPhi: 17.524 [ms]
[INFO] ConstrainPressure: 0.002 [ms]
[INFO] MatrixAssemblyPII: 113.633 [ms]
[OGL LOG][Proc: 0]: global_index_init: 0.008 [ms]
[OGL LOG][Proc: 0]p_local_coeffs: call_update: 0.004 [ms]
[OGL LOG][Proc: 0]p_non_local_coeffs: call_update: 0 [ms]
[OGL LOG][Proc: 0]p: update_local_matrix_data: 64.284 [ms]
[OGL LOG][Proc: 0]p: update_non_local_matrix_data: 0.245 [ms]
[OGL LOG][Proc: 0]p: regenerate_distributed_matrix: 185.686 [ms]
[OGL LOG][Proc: 0]p_matrix: call_update: 186.866 [ms]
[OGL LOG][Proc: 0]p_rhs: call_update: 1.832 [ms]
[OGL LOG][Preconditioner.H:121] Generate preconditioner BJ MaxBlockSize 1
[OGL LOG][Proc: 0]p: init_precond: 1.01 [ms]
[OGL LOG][StoppingCriterion.H:237] Creating stopping criterion with minIter 886 frequency 9
[OGL LOG][Proc: 0]p: generate_solver: 0.001 [ms]
[OGL LOG][Proc: 0]p: solve: 843.869 [ms]
[OGL LOG][Proc: 0]p: copy_x_back: 5.477 [ms]
[OGL LOG][lduLduBase.H:330] 
Statistics:
	Time per iteration: 571 [mu s]
	Time per residual norm calculation: 94.000000 [mu s]
	Time per iteration and DOF: 0.071375 [ns]
	Retrieve results bandwidth 2.921000 [GByte/s]
[OGL LOG][Proc: 0]p: solve_multi_gpu: 1040.2 [ms]
BJcudaGKOCG:  Solving for p, Initial residual = 0.327494, Final residual = 8.33487e-05, No Iterations 1477
[INFO] SolveP: 1118.3 [ms]
time step continuity errors : sum local = 4.175e-09, global = 2.26951e-21, cumulative = -2.09886e-20
[INFO] ContinuityError: 39.947 [ms]
[INFO] CorrectBoundary: 0.395 [ms]
[INFO] PISOStep: 1769.67 [ms]
[INFO] TimeStep: 6748.9 [ms]
ExecutionTime = 87.38 s  ClockTime = 88 s

Time = 0.0035

Courant Number mean: 0.0532453 max: 0.484205
[INFO] MatrixAssemblyU: 329.972 [ms]
DILUPBiCGStab:  Solving for Ux, Initial residual = 0.00702958, Final residual = 0.000118949, No Iterations 5
DILUPBiCGStab:  Solving for Uy, Initial residual = 0.017513, Final residual = 0.00022235, No Iterations 5
DILUPBiCGStab:  Solving for Uz, Initial residual = 0.0644136, Final residual = 0.00248548, No Iterations 5
[INFO] MomentumPredictor: 2709.02 [ms]
[INFO] MatrixAssemblyPI: 383.544 [ms]
[INFO] AdjustPhi: 23.693 [ms]
[INFO] ConstrainPressure: 0.003 [ms]
[INFO] MatrixAssemblyPII: 121.862 [ms]
[OGL LOG][Proc: 0]: global_index_init: 0.009 [ms]
[OGL LOG][Proc: 0]p_local_coeffs: call_update: 0 [ms]
[OGL LOG][Proc: 0]p_non_local_coeffs: call_update: 0 [ms]
[OGL LOG][Proc: 0]p: update_local_matrix_data: 73.827 [ms]
[OGL LOG][Proc: 0]p: update_non_local_matrix_data: 0.218 [ms]
[OGL LOG][Proc: 0]p: regenerate_distributed_matrix: 192.975 [ms]
[OGL LOG][Proc: 0]p_matrix: call_update: 194.065 [ms]
[OGL LOG][Proc: 0]p_rhs: call_update: 4.724 [ms]
[OGL LOG][Preconditioner.H:121] Generate preconditioner BJ MaxBlockSize 1
[OGL LOG][Proc: 0]p: init_precond: 1.061 [ms]
[OGL LOG][StoppingCriterion.H:237] Creating stopping criterion with minIter 886 frequency 9
[OGL LOG][Proc: 0]p: generate_solver: 0.001 [ms]
[OGL LOG][Proc: 0]p: solve: 839.331 [ms]
[OGL LOG][Proc: 0]p: copy_x_back: 5.742 [ms]
[OGL LOG][lduLduBase.H:330] 
Statistics:
	Time per iteration: 593 [mu s]
	Time per residual norm calculation: 91.000000 [mu s]
	Time per iteration and DOF: 0.074125 [ns]
	Retrieve results bandwidth 2.786000 [GByte/s]
[OGL LOG][Proc: 0]p: solve_multi_gpu: 1046.2 [ms]
BJcudaGKOCG:  Solving for p, Initial residual = 0.330937, Final residual = 9.20167e-05, No Iterations 1414
[INFO] SolveP: 1131.03 [ms]
time step continuity errors : sum local = 4.45483e-09, global = 1.32952e-21, cumulative = -1.9659e-20
[INFO] ContinuityError: 39.636 [ms]
[INFO] CorrectBoundary: 0.548 [ms]
[INFO] PISOStep: 1833.24 [ms]
[INFO] MatrixAssemblyPI: 353.548 [ms]
[INFO] AdjustPhi: 17.572 [ms]
[INFO] ConstrainPressure: 0.003 [ms]
[INFO] MatrixAssemblyPII: 114.24 [ms]
[OGL LOG][Proc: 0]: global_index_init: 0.009 [ms]
[OGL LOG][Proc: 0]p_local_coeffs: call_update: 0 [ms]
[OGL LOG][Proc: 0]p_non_local_coeffs: call_update: 0 [ms]
[OGL LOG][Proc: 0]p: update_local_matrix_data: 63.362 [ms]
[OGL LOG][Proc: 0]p: update_non_local_matrix_data: 0.223 [ms]
[OGL LOG][Proc: 0]p: regenerate_distributed_matrix: 185.786 [ms]
[OGL LOG][Proc: 0]p_matrix: call_update: 186.975 [ms]
[OGL LOG][Proc: 0]p_rhs: call_update: 1.845 [ms]
[OGL LOG][Preconditioner.H:121] Generate preconditioner BJ MaxBlockSize 1
[OGL LOG][Proc: 0]p: init_precond: 1.012 [ms]
[OGL LOG][StoppingCriterion.H:237] Creating stopping criterion with minIter 848 frequency 9
[OGL LOG][Proc: 0]p: generate_solver: 0.001 [ms]
[OGL LOG][Proc: 0]p: solve: 820.921 [ms]
[OGL LOG][Proc: 0]p: copy_x_back: 5.556 [ms]
[OGL LOG][lduLduBase.H:330] 
Statistics:
	Time per iteration: 573 [mu s]
	Time per residual norm calculation: 89.000000 [mu s]
	Time per iteration and DOF: 0.071625 [ns]
	Retrieve results bandwidth 2.879000 [GByte/s]
[OGL LOG][Proc: 0]p: solve_multi_gpu: 1017.32 [ms]
BJcudaGKOCG:  Solving for p, Initial residual = 0.292181, Final residual = 9.88776e-05, No Iterations 1432
[INFO] SolveP: 1093.05 [ms]
time step continuity errors : sum local = 4.76776e-09, global = -3.10906e-21, cumulative = -2.27681e-20
[INFO] ContinuityError: 41.301 [ms]
[INFO] CorrectBoundary: 1.92 [ms]
[INFO] PISOStep: 1747.07 [ms]
[INFO] TimeStep: 6660.07 [ms]
ExecutionTime = 94.02 s  ClockTime = 95 s

Time = 0.00375

Courant Number mean: 0.0546444 max: 0.484644
[INFO] MatrixAssemblyU: 351.539 [ms]
DILUPBiCGStab:  Solving for Ux, Initial residual = 0.00645181, Final residual = 0.000103505, No Iterations 5
DILUPBiCGStab:  Solving for Uy, Initial residual = 0.0156936, Final residual = 0.000179608, No Iterations 5
DILUPBiCGStab:  Solving for Uz, Initial residual = 0.0562104, Final residual = 0.00231937, No Iterations 5
[INFO] MomentumPredictor: 2725.69 [ms]
[INFO] MatrixAssemblyPI: 381.761 [ms]
[INFO] AdjustPhi: 23.626 [ms]
[INFO] ConstrainPressure: 0.002 [ms]
[INFO] MatrixAssemblyPII: 122.002 [ms]
[OGL LOG][Proc: 0]: global_index_init: 0.01 [ms]
[OGL LOG][Proc: 0]p_local_coeffs: call_update: 0 [ms]
[OGL LOG][Proc: 0]p_non_local_coeffs: call_update: 0 [ms]
[OGL LOG][Proc: 0]p: update_local_matrix_data: 73.536 [ms]
[OGL LOG][Proc: 0]p: update_non_local_matrix_data: 0.215 [ms]
[OGL LOG][Proc: 0]p: regenerate_distributed_matrix: 193.699 [ms]
[OGL LOG][Proc: 0]p_matrix: call_update: 194.653 [ms]
[OGL LOG][Proc: 0]p_rhs: call_update: 4.616 [ms]
[OGL LOG][Preconditioner.H:121] Generate preconditioner BJ MaxBlockSize 1
[OGL LOG][Proc: 0]p: init_precond: 1.011 [ms]
[OGL LOG][StoppingCriterion.H:237] Creating stopping criterion with minIter 859 frequency 9
[OGL LOG][Proc: 0]p: generate_solver: 0.001 [ms]
[OGL LOG][Proc: 0]p: solve: 546.806 [ms]
[OGL LOG][Proc: 0]p: copy_x_back: 5.53 [ms]
[OGL LOG][lduLduBase.H:330] 
Statistics:
	Time per iteration: 632 [mu s]
	Time per residual norm calculation: 102.000000 [mu s]
	Time per iteration and DOF: 0.079000 [ns]
	Retrieve results bandwidth 2.893000 [GByte/s]
[OGL LOG][Proc: 0]p: solve_multi_gpu: 753.783 [ms]
BJcudaGKOCG:  Solving for p, Initial residual = 0.299305, Final residual = 5.62332e-05, No Iterations 865
[INFO] SolveP: 838.454 [ms]
time step continuity errors : sum local = 2.82817e-09, global = 6.78353e-22, cumulative = -2.20898e-20
[INFO] ContinuityError: 39.875 [ms]
[INFO] CorrectBoundary: 0.411 [ms]
[INFO] PISOStep: 1537.51 [ms]
[INFO] MatrixAssemblyPI: 349.243 [ms]
[INFO] AdjustPhi: 17.418 [ms]
[INFO] ConstrainPressure: 0.002 [ms]
[INFO] MatrixAssemblyPII: 113.25 [ms]
[OGL LOG][Proc: 0]: global_index_init: 0.009 [ms]
[OGL LOG][Proc: 0]p_local_coeffs: call_update: 0 [ms]
[OGL LOG][Proc: 0]p_non_local_coeffs: call_update: 0 [ms]
[OGL LOG][Proc: 0]p: update_local_matrix_data: 63.356 [ms]
[OGL LOG][Proc: 0]p: update_non_local_matrix_data: 0.225 [ms]
[OGL LOG][Proc: 0]p: regenerate_distributed_matrix: 184.595 [ms]
[OGL LOG][Proc: 0]p_matrix: call_update: 185.665 [ms]
[OGL LOG][Proc: 0]p_rhs: call_update: 1.822 [ms]
[OGL LOG][Preconditioner.H:121] Generate preconditioner BJ MaxBlockSize 1
[OGL LOG][Proc: 0]p: init_precond: 1.035 [ms]
[OGL LOG][StoppingCriterion.H:237] Creating stopping criterion with minIter 519 frequency 7
[OGL LOG][Proc: 0]p: generate_solver: 0.001 [ms]
[OGL LOG][Proc: 0]p: solve: 426.458 [ms]
[OGL LOG][Proc: 0]p: copy_x_back: 5.503 [ms]
[OGL LOG][lduLduBase.H:330] 
Statistics:
	Time per iteration: 627 [mu s]
	Time per residual norm calculation: 93.000000 [mu s]
	Time per iteration and DOF: 0.078375 [ns]
	Retrieve results bandwidth 2.907000 [GByte/s]
[OGL LOG][Proc: 0]p: solve_multi_gpu: 621.572 [ms]
BJcudaGKOCG:  Solving for p, Initial residual = 0.262093, Final residual = 9.95695e-05, No Iterations 680
[INFO] SolveP: 696.803 [ms]
time step continuity errors : sum local = 4.71682e-09, global = -1.16805e-21, cumulative = -2.32578e-20
[INFO] ContinuityError: 40.066 [ms]
[INFO] CorrectBoundary: 0.407 [ms]
[INFO] PISOStep: 1344.88 [ms]
[INFO] TimeStep: 6000.46 [ms]
ExecutionTime = 100.02 s  ClockTime = 101 s

Time = 0.004

Courant Number mean: 0.0559556 max: 0.485107
[INFO] MatrixAssemblyU: 329.472 [ms]
DILUPBiCGStab:  Solving for Ux, Initial residual = 0.00593196, Final residual = 9.06926e-05, No Iterations 5
DILUPBiCGStab:  Solving for Uy, Initial residual = 0.0144062, Final residual = 0.000146705, No Iterations 5
DILUPBiCGStab:  Solving for Uz, Initial residual = 0.0491004, Final residual = 0.00195917, No Iterations 5
[INFO] MomentumPredictor: 2714.52 [ms]
[INFO] MatrixAssemblyPI: 387.309 [ms]
[INFO] AdjustPhi: 23.766 [ms]
[INFO] ConstrainPressure: 0.002 [ms]
[INFO] MatrixAssemblyPII: 122.397 [ms]
[OGL LOG][Proc: 0]: global_index_init: 0.013 [ms]
[OGL LOG][Proc: 0]p_local_coeffs: call_update: 0 [ms]
[OGL LOG][Proc: 0]p_non_local_coeffs: call_update: 0 [ms]
[OGL LOG][Proc: 0]p: update_local_matrix_data: 73.653 [ms]
[OGL LOG][Proc: 0]p: update_non_local_matrix_data: 0.313 [ms]
[OGL LOG][Proc: 0]p: regenerate_distributed_matrix: 192.529 [ms]
[OGL LOG][Proc: 0]p_matrix: call_update: 193.827 [ms]
[OGL LOG][Proc: 0]p_rhs: call_update: 5.158 [ms]
[OGL LOG][Preconditioner.H:121] Generate preconditioner BJ MaxBlockSize 1
[OGL LOG][Proc: 0]p: init_precond: 1.037 [ms]
[OGL LOG][StoppingCriterion.H:237] Creating stopping criterion with minIter 408 frequency 6
[OGL LOG][Proc: 0]p: generate_solver: 0.001 [ms]
[OGL LOG][Proc: 0]p: solve: 480.489 [ms]
[OGL LOG][Proc: 0]p: copy_x_back: 7.295 [ms]
[OGL LOG][lduLduBase.H:330] 
Statistics:
	Time per iteration: 660 [mu s]
	Time per residual norm calculation: 92.000000 [mu s]
	Time per iteration and DOF: 0.082500 [ns]
	Retrieve results bandwidth 2.193000 [GByte/s]
[OGL LOG][Proc: 0]p: solve_multi_gpu: 689.387 [ms]
BJcudaGKOCG:  Solving for p, Initial residual = 0.268842, Final residual = 9.08927e-05, No Iterations 727
[INFO] SolveP: 774.092 [ms]
time step continuity errors : sum local = 4.60112e-09, global = -2.70297e-21, cumulative = -2.59608e-20
[INFO] ContinuityError: 39.818 [ms]
[INFO] CorrectBoundary: 0.4 [ms]
[INFO] PISOStep: 1479.7 [ms]
[INFO] MatrixAssemblyPI: 353.027 [ms]
[INFO] AdjustPhi: 17.531 [ms]
[INFO] ConstrainPressure: 0.003 [ms]
[INFO] MatrixAssemblyPII: 113.035 [ms]
[OGL LOG][Proc: 0]: global_index_init: 0.009 [ms]
[OGL LOG][Proc: 0]p_local_coeffs: call_update: 0 [ms]
[OGL LOG][Proc: 0]p_non_local_coeffs: call_update: 0 [ms]
[OGL LOG][Proc: 0]p: update_local_matrix_data: 63.298 [ms]
[OGL LOG][Proc: 0]p: update_non_local_matrix_data: 0.218 [ms]
[OGL LOG][Proc: 0]p: regenerate_distributed_matrix: 185.868 [ms]
[OGL LOG][Proc: 0]p_matrix: call_update: 186.954 [ms]
[OGL LOG][Proc: 0]p_rhs: call_update: 1.811 [ms]
[OGL LOG][Preconditioner.H:121] Generate preconditioner BJ MaxBlockSize 1
[OGL LOG][Proc: 0]p: init_precond: 1.034 [ms]
[OGL LOG][StoppingCriterion.H:237] Creating stopping criterion with minIter 436 frequency 6
[OGL LOG][Proc: 0]p: generate_solver: 0.001 [ms]
[OGL LOG][Proc: 0]p: solve: 440.175 [ms]
[OGL LOG][Proc: 0]p: copy_x_back: 5.407 [ms]
[OGL LOG][lduLduBase.H:330] 
Statistics:
	Time per iteration: 626 [mu s]
	Time per residual norm calculation: 95.000000 [mu s]
	Time per iteration and DOF: 0.078250 [ns]
	Retrieve results bandwidth 2.959000 [GByte/s]
[OGL LOG][Proc: 0]p: solve_multi_gpu: 636.538 [ms]
BJcudaGKOCG:  Solving for p, Initial residual = 0.236427, Final residual = 9.66047e-05, No Iterations 703
[INFO] SolveP: 713.813 [ms]
time step continuity errors : sum local = 4.47186e-09, global = -2.66092e-21, cumulative = -2.86217e-20
[INFO] ContinuityError: 40.501 [ms]
[INFO] CorrectBoundary: 0.398 [ms]
[INFO] PISOStep: 1368.1 [ms]
[INFO] TimeStep: 5932.43 [ms]
ExecutionTime = 105.93 s  ClockTime = 107 s

Time = 0.00425

Courant Number mean: 0.0571912 max: 0.485464
[INFO] MatrixAssemblyU: 351.791 [ms]
DILUPBiCGStab:  Solving for Ux, Initial residual = 0.00548433, Final residual = 7.97325e-05, No Iterations 5
DILUPBiCGStab:  Solving for Uy, Initial residual = 0.0131616, Final residual = 0.000126289, No Iterations 5
DILUPBiCGStab:  Solving for Uz, Initial residual = 0.0441965, Final residual = 0.00181301, No Iterations 5
[INFO] MomentumPredictor: 2718.1 [ms]
[INFO] MatrixAssemblyPI: 378.943 [ms]
[INFO] AdjustPhi: 23.667 [ms]
[INFO] ConstrainPressure: 0.003 [ms]
[INFO] MatrixAssemblyPII: 121.438 [ms]
[OGL LOG][Proc: 0]: global_index_init: 0.008 [ms]
[OGL LOG][Proc: 0]p_local_coeffs: call_update: 0 [ms]
[OGL LOG][Proc: 0]p_non_local_coeffs: call_update: 0 [ms]
[OGL LOG][Proc: 0]p: update_local_matrix_data: 73.484 [ms]
[OGL LOG][Proc: 0]p: update_non_local_matrix_data: 0.226 [ms]
[OGL LOG][Proc: 0]p: regenerate_distributed_matrix: 192.692 [ms]
[OGL LOG][Proc: 0]p_matrix: call_update: 193.728 [ms]
[OGL LOG][Proc: 0]p_rhs: call_update: 4.689 [ms]
[OGL LOG][Preconditioner.H:121] Generate preconditioner BJ MaxBlockSize 1
[OGL LOG][Proc: 0]p: init_precond: 1.141 [ms]
[OGL LOG][StoppingCriterion.H:237] Creating stopping criterion with minIter 421 frequency 6
[OGL LOG][Proc: 0]p: generate_solver: 0.001 [ms]
[OGL LOG][Proc: 0]p: solve: 876.647 [ms]
[OGL LOG][Proc: 0]p: copy_x_back: 5.442 [ms]
[OGL LOG][lduLduBase.H:330] 
Statistics:
	Time per iteration: 595 [mu s]
	Time per residual norm calculation: 88.000000 [mu s]
	Time per iteration and DOF: 0.074375 [ns]
	Retrieve results bandwidth 2.940000 [GByte/s]
[OGL LOG][Proc: 0]p: solve_multi_gpu: 1082.66 [ms]
BJcudaGKOCG:  Solving for p, Initial residual = 0.240246, Final residual = 9.46405e-05, No Iterations 1471
[INFO] SolveP: 1167.5 [ms]
time step continuity errors : sum local = 4.16922e-09, global = 4.62252e-22, cumulative = -2.81594e-20
[INFO] ContinuityError: 39.695 [ms]
[INFO] CorrectBoundary: 0.398 [ms]
[INFO] PISOStep: 1862.77 [ms]
[INFO] MatrixAssemblyPI: 349.865 [ms]
[INFO] AdjustPhi: 17.502 [ms]
[INFO] ConstrainPressure: 0.002 [ms]
[INFO] MatrixAssemblyPII: 113.351 [ms]
[OGL LOG][Proc: 0]: global_index_init: 0.009 [ms]
[OGL LOG][Proc: 0]p_local_coeffs: call_update: 0 [ms]
[OGL LOG][Proc: 0]p_non_local_coeffs: call_update: 0 [ms]
[OGL LOG][Proc: 0]p: update_local_matrix_data: 63.131 [ms]
[OGL LOG][Proc: 0]p: update_non_local_matrix_data: 0.217 [ms]
[OGL LOG][Proc: 0]p: regenerate_distributed_matrix: 184.948 [ms]
[OGL LOG][Proc: 0]p_matrix: call_update: 186.251 [ms]
[OGL LOG][Proc: 0]p_rhs: call_update: 1.868 [ms]
[OGL LOG][Preconditioner.H:121] Generate preconditioner BJ MaxBlockSize 1
[OGL LOG][Proc: 0]p: init_precond: 1.052 [ms]
[OGL LOG][StoppingCriterion.H:237] Creating stopping criterion with minIter 882 frequency 9
[OGL LOG][Proc: 0]p: generate_solver: 0.001 [ms]
[OGL LOG][Proc: 0]p: solve: 838.389 [ms]
[OGL LOG][Proc: 0]p: copy_x_back: 5.576 [ms]
[OGL LOG][lduLduBase.H:330] 
Statistics:
	Time per iteration: 571 [mu s]
	Time per residual norm calculation: 101.000000 [mu s]
	Time per iteration and DOF: 0.071375 [ns]
	Retrieve results bandwidth 2.869000 [GByte/s]
[OGL LOG][Proc: 0]p: solve_multi_gpu: 1034.15 [ms]
BJcudaGKOCG:  Solving for p, Initial residual = 0.209658, Final residual = 9.33017e-05, No Iterations 1468
[INFO] SolveP: 1109.15 [ms]
time step continuity errors : sum local = 4.11465e-09, global = -3.17872e-22, cumulative = -2.84773e-20
[INFO] ContinuityError: 39.695 [ms]
[INFO] CorrectBoundary: 0.624 [ms]
[INFO] PISOStep: 1755.74 [ms]
[INFO] TimeStep: 6728.73 [ms]
ExecutionTime = 112.65 s  ClockTime = 114 s

Time = 0.0045

Courant Number mean: 0.0583577 max: 0.485835
[INFO] MatrixAssemblyU: 330.313 [ms]
DILUPBiCGStab:  Solving for Ux, Initial residual = 0.00510175, Final residual = 7.08958e-05, No Iterations 5
DILUPBiCGStab:  Solving for Uy, Initial residual = 0.0121934, Final residual = 0.000105101, No Iterations 5
DILUPBiCGStab:  Solving for Uz, Initial residual = 0.039584, Final residual = 0.0015282, No Iterations 5
[INFO] MomentumPredictor: 2719.57 [ms]
[INFO] MatrixAssemblyPI: 385.081 [ms]
[INFO] AdjustPhi: 23.768 [ms]
[INFO] ConstrainPressure: 0.002 [ms]
[INFO] MatrixAssemblyPII: 122.501 [ms]
[OGL LOG][Proc: 0]: global_index_init: 0.008 [ms]
[OGL LOG][Proc: 0]p_local_coeffs: call_update: 0 [ms]
[OGL LOG][Proc: 0]p_non_local_coeffs: call_update: 0 [ms]
[OGL LOG][Proc: 0]p: update_local_matrix_data: 73.681 [ms]
[OGL LOG][Proc: 0]p: update_non_local_matrix_data: 0.221 [ms]
[OGL LOG][Proc: 0]p: regenerate_distributed_matrix: 192.213 [ms]
[OGL LOG][Proc: 0]p_matrix: call_update: 193.354 [ms]
[OGL LOG][Proc: 0]p_rhs: call_update: 4.724 [ms]
[OGL LOG][Preconditioner.H:121] Generate preconditioner BJ MaxBlockSize 1
[OGL LOG][Proc: 0]p: init_precond: 0.976 [ms]
[OGL LOG][StoppingCriterion.H:237] Creating stopping criterion with minIter 880 frequency 10
[OGL LOG][Proc: 0]p: generate_solver: 0.001 [ms]
[OGL LOG][Proc: 0]p: solve: 866.655 [ms]
[OGL LOG][Proc: 0]p: copy_x_back: 5.432 [ms]
[OGL LOG][lduLduBase.H:330] 
Statistics:
	Time per iteration: 589 [mu s]
	Time per residual norm calculation: 90.000000 [mu s]
	Time per iteration and DOF: 0.073625 [ns]
	Retrieve results bandwidth 2.945000 [GByte/s]
[OGL LOG][Proc: 0]p: solve_multi_gpu: 1072.16 [ms]
BJcudaGKOCG:  Solving for p, Initial residual = 0.217326, Final residual = 8.34787e-05, No Iterations 1471
[INFO] SolveP: 1157.53 [ms]
time step continuity errors : sum local = 3.5444e-09, global = -1.97629e-21, cumulative = -3.04536e-20
[INFO] ContinuityError: 40.494 [ms]
[INFO] CorrectBoundary: 0.411 [ms]
[INFO] PISOStep: 1861.83 [ms]
[INFO] MatrixAssemblyPI: 353.018 [ms]
[INFO] AdjustPhi: 17.87 [ms]
[INFO] ConstrainPressure: 0.002 [ms]
[INFO] MatrixAssemblyPII: 114.492 [ms]
[OGL LOG][Proc: 0]: global_index_init: 0.009 [ms]
[OGL LOG][Proc: 0]p_local_coeffs: call_update: 0 [ms]
[OGL LOG][Proc: 0]p_non_local_coeffs: call_update: 0 [ms]
[OGL LOG][Proc: 0]p: update_local_matrix_data: 63.894 [ms]
[OGL LOG][Proc: 0]p: update_non_local_matrix_data: 0.219 [ms]
[OGL LOG][Proc: 0]p: regenerate_distributed_matrix: 184.54 [ms]
[OGL LOG][Proc: 0]p_matrix: call_update: 185.577 [ms]
[OGL LOG][Proc: 0]p_rhs: call_update: 1.811 [ms]
[OGL LOG][Preconditioner.H:121] Generate preconditioner BJ MaxBlockSize 1
[OGL LOG][Proc: 0]p: init_precond: 0.974 [ms]
[OGL LOG][StoppingCriterion.H:237] Creating stopping criterion with minIter 882 frequency 9
[OGL LOG][Proc: 0]p: generate_solver: 0.001 [ms]
[OGL LOG][Proc: 0]p: solve: 842.244 [ms]
[OGL LOG][Proc: 0]p: copy_x_back: 5.52 [ms]
[OGL LOG][lduLduBase.H:330] 
Statistics:
	Time per iteration: 573 [mu s]
	Time per residual norm calculation: 90.000000 [mu s]
	Time per iteration and DOF: 0.071625 [ns]
	Retrieve results bandwidth 2.898000 [GByte/s]
[OGL LOG][Proc: 0]p: solve_multi_gpu: 1037.27 [ms]
BJcudaGKOCG:  Solving for p, Initial residual = 0.190428, Final residual = 8.71317e-05, No Iterations 1468
[INFO] SolveP: 1112.85 [ms]
time step continuity errors : sum local = 3.69084e-09, global = -2.52111e-21, cumulative = -3.29747e-20
[INFO] ContinuityError: 39.597 [ms]
[INFO] CorrectBoundary: 0.409 [ms]
[INFO] PISOStep: 1763.81 [ms]
[INFO] TimeStep: 6715.99 [ms]
ExecutionTime = 119.35 s  ClockTime = 121 s

Time = 0.00475

Courant Number mean: 0.0594621 max: 0.486132
[INFO] MatrixAssemblyU: 352.969 [ms]
DILUPBiCGStab:  Solving for Ux, Initial residual = 0.00475405, Final residual = 6.27909e-05, No Iterations 5
DILUPBiCGStab:  Solving for Uy, Initial residual = 0.0112417, Final residual = 9.43291e-05, No Iterations 5
DILUPBiCGStab:  Solving for Uz, Initial residual = 0.0346255, Final residual = 0.0013245, No Iterations 5
[INFO] MomentumPredictor: 2725.75 [ms]
[INFO] MatrixAssemblyPI: 382.236 [ms]
[INFO] AdjustPhi: 23.655 [ms]
[INFO] ConstrainPressure: 0.002 [ms]
[INFO] MatrixAssemblyPII: 122.456 [ms]
[OGL LOG][Proc: 0]: global_index_init: 0.1 [ms]
[OGL LOG][Proc: 0]p_local_coeffs: call_update: 0 [ms]
[OGL LOG][Proc: 0]p_non_local_coeffs: call_update: 0 [ms]
[OGL LOG][Proc: 0]p: update_local_matrix_data: 73.591 [ms]
[OGL LOG][Proc: 0]p: update_non_local_matrix_data: 0.231 [ms]
[OGL LOG][Proc: 0]p: regenerate_distributed_matrix: 193.162 [ms]
[OGL LOG][Proc: 0]p_matrix: call_update: 194.067 [ms]
[OGL LOG][Proc: 0]p_rhs: call_update: 4.618 [ms]
[OGL LOG][Preconditioner.H:121] Generate preconditioner BJ MaxBlockSize 1
[OGL LOG][Proc: 0]p: init_precond: 1.062 [ms]
[OGL LOG][StoppingCriterion.H:237] Creating stopping criterion with minIter 880 frequency 9
[OGL LOG][Proc: 0]p: generate_solver: 0.001 [ms]
[OGL LOG][Proc: 0]p: solve: 866.435 [ms]
[OGL LOG][Proc: 0]p: copy_x_back: 5.548 [ms]
[OGL LOG][lduLduBase.H:330] 
Statistics:
	Time per iteration: 590 [mu s]
	Time per residual norm calculation: 90.000000 [mu s]
	Time per iteration and DOF: 0.073750 [ns]
	Retrieve results bandwidth 2.883000 [GByte/s]
[OGL LOG][Proc: 0]p: solve_multi_gpu: 1072.89 [ms]
BJcudaGKOCG:  Solving for p, Initial residual = 0.192974, Final residual = 7.68833e-05, No Iterations 1468
[INFO] SolveP: 1157.67 [ms]
time step continuity errors : sum local = 3.24132e-09, global = -1.69464e-22, cumulative = -3.31442e-20
[INFO] ContinuityError: 39.828 [ms]
[INFO] CorrectBoundary: 0.39 [ms]
[INFO] PISOStep: 1857.87 [ms]
[INFO] MatrixAssemblyPI: 353.566 [ms]
[INFO] AdjustPhi: 17.602 [ms]
[INFO] ConstrainPressure: 0.002 [ms]
[INFO] MatrixAssemblyPII: 114.113 [ms]
[OGL LOG][Proc: 0]: global_index_init: 0.042 [ms]
[OGL LOG][Proc: 0]p_local_coeffs: call_update: 0 [ms]
[OGL LOG][Proc: 0]p_non_local_coeffs: call_update: 0 [ms]
[OGL LOG][Proc: 0]p: update_local_matrix_data: 64.321 [ms]
[OGL LOG][Proc: 0]p: update_non_local_matrix_data: 0.344 [ms]
[OGL LOG][Proc: 0]p: regenerate_distributed_matrix: 185.711 [ms]
[OGL LOG][Proc: 0]p_matrix: call_update: 186.881 [ms]
[OGL LOG][Proc: 0]p_rhs: call_update: 1.829 [ms]
[OGL LOG][Preconditioner.H:121] Generate preconditioner BJ MaxBlockSize 1
[OGL LOG][Proc: 0]p: init_precond: 1.165 [ms]
[OGL LOG][StoppingCriterion.H:237] Creating stopping criterion with minIter 880 frequency 9
[OGL LOG][Proc: 0]p: generate_solver: 0.001 [ms]
[OGL LOG][Proc: 0]p: solve: 838.312 [ms]
[OGL LOG][Proc: 0]p: copy_x_back: 6.36 [ms]
[OGL LOG][lduLduBase.H:330] 
Statistics:
	Time per iteration: 574 [mu s]
	Time per residual norm calculation: 93.000000 [mu s]
	Time per iteration and DOF: 0.071750 [ns]
	Retrieve results bandwidth 2.515000 [GByte/s]
[OGL LOG][Proc: 0]p: solve_multi_gpu: 1041.28 [ms]
BJcudaGKOCG:  Solving for p, Initial residual = 0.168129, Final residual = 9.91506e-05, No Iterations 1459
[INFO] SolveP: 1116.95 [ms]
time step continuity errors : sum local = 4.18256e-09, global = -2.04859e-21, cumulative = -3.51928e-20
[INFO] ContinuityError: 39.879 [ms]
[INFO] CorrectBoundary: 0.548 [ms]
[INFO] PISOStep: 1768.3 [ms]
[INFO] TimeStep: 6745.82 [ms]
ExecutionTime = 126.08 s  ClockTime = 127 s

Time = 0.005

Courant Number mean: 0.06051 max: 0.486437
[INFO] MatrixAssemblyU: 329.101 [ms]
DILUPBiCGStab:  Solving for Ux, Initial residual = 0.00445055, Final residual = 5.62963e-05, No Iterations 5
DILUPBiCGStab:  Solving for Uy, Initial residual = 0.0105096, Final residual = 7.99882e-05, No Iterations 5
DILUPBiCGStab:  Solving for Uz, Initial residual = 0.0314633, Final residual = 0.00113327, No Iterations 5
[INFO] MomentumPredictor: 2721.89 [ms]
[INFO] MatrixAssemblyPI: 384.071 [ms]
[INFO] AdjustPhi: 23.877 [ms]
[INFO] ConstrainPressure: 0.003 [ms]
[INFO] MatrixAssemblyPII: 122.956 [ms]
[OGL LOG][Proc: 0]: global_index_init: 0.008 [ms]
[OGL LOG][Proc: 0]p_local_coeffs: call_update: 0 [ms]
[OGL LOG][Proc: 0]p_non_local_coeffs: call_update: 0 [ms]
[OGL LOG][Proc: 0]p: update_local_matrix_data: 74.151 [ms]
[OGL LOG][Proc: 0]p: update_non_local_matrix_data: 0.218 [ms]
[OGL LOG][Proc: 0]p: regenerate_distributed_matrix: 242.428 [ms]
[OGL LOG][Proc: 0]p_matrix: call_update: 243.307 [ms]
[OGL LOG][Proc: 0]p_rhs: call_update: 4.564 [ms]
[OGL LOG][Preconditioner.H:121] Generate preconditioner BJ MaxBlockSize 1
[OGL LOG][Proc: 0]p: init_precond: 1.097 [ms]
[OGL LOG][StoppingCriterion.H:237] Creating stopping criterion with minIter 875 frequency 9
[OGL LOG][Proc: 0]p: generate_solver: 0.001 [ms]
[OGL LOG][Proc: 0]p: solve: 860.399 [ms]
[OGL LOG][Proc: 0]p: copy_x_back: 5.448 [ms]
[OGL LOG][lduLduBase.H:330] 
Statistics:
	Time per iteration: 589 [mu s]
	Time per residual norm calculation: 92.000000 [mu s]
	Time per iteration and DOF: 0.073625 [ns]
	Retrieve results bandwidth 2.936000 [GByte/s]
[OGL LOG][Proc: 0]p: solve_multi_gpu: 1115.67 [ms]
BJcudaGKOCG:  Solving for p, Initial residual = 0.174649, Final residual = 9.80514e-05, No Iterations 1459
[INFO] SolveP: 1201.47 [ms]
time step continuity errors : sum local = 3.99312e-09, global = -2.41369e-21, cumulative = -3.76065e-20
[INFO] ContinuityError: 39.738 [ms]
[INFO] CorrectBoundary: 0.403 [ms]
[INFO] PISOStep: 1904.88 [ms]
[INFO] MatrixAssemblyPI: 350.999 [ms]
[INFO] AdjustPhi: 17.628 [ms]
[INFO] ConstrainPressure: 0.002 [ms]
[INFO] MatrixAssemblyPII: 113.698 [ms]
[OGL LOG][Proc: 0]: global_index_init: 0.009 [ms]
[OGL LOG][Proc: 0]p_local_coeffs: call_update: 0 [ms]
[OGL LOG][Proc: 0]p_non_local_coeffs: call_update: 0 [ms]
[OGL LOG][Proc: 0]p: update_local_matrix_data: 64.012 [ms]
[OGL LOG][Proc: 0]p: update_non_local_matrix_data: 0.228 [ms]
[OGL LOG][Proc: 0]p: regenerate_distributed_matrix: 186.415 [ms]
[OGL LOG][Proc: 0]p_matrix: call_update: 187.5 [ms]
[OGL LOG][Proc: 0]p_rhs: call_update: 1.828 [ms]
[OGL LOG][Preconditioner.H:121] Generate preconditioner BJ MaxBlockSize 1
[OGL LOG][Proc: 0]p: init_precond: 1.015 [ms]
[OGL LOG][StoppingCriterion.H:237] Creating stopping criterion with minIter 875 frequency 9
[OGL LOG][Proc: 0]p: generate_solver: 0.001 [ms]
[OGL LOG][Proc: 0]p: solve: 837.833 [ms]
[OGL LOG][Proc: 0]p: copy_x_back: 5.472 [ms]
[OGL LOG][lduLduBase.H:330] 
Statistics:
	Time per iteration: 574 [mu s]
	Time per residual norm calculation: 90.000000 [mu s]
	Time per iteration and DOF: 0.071750 [ns]
	Retrieve results bandwidth 2.923000 [GByte/s]
[OGL LOG][Proc: 0]p: solve_multi_gpu: 1034.81 [ms]
BJcudaGKOCG:  Solving for p, Initial residual = 0.152708, Final residual = 8.93073e-05, No Iterations 1459
[INFO] SolveP: 1110.38 [ms]
time step continuity errors : sum local = 3.63094e-09, global = -1.03494e-21, cumulative = -3.86414e-20
[INFO] ContinuityError: 39.802 [ms]
[INFO] CorrectBoundary: 0.386 [ms]
[INFO] PISOStep: 1758.62 [ms]
[INFO] TimeStep: 6755.67 [ms]
ExecutionTime = 132.82 s  ClockTime = 134 s

End

Finalising parallel run
