/*---------------------------------------------------------------------------*\
| =========                 |                                                 |
| \\      /  F ield         | OpenFOAM: The Open Source CFD Toolbox           |
|  \\    /   O peration     | Version:  2306                                  |
|   \\  /    A nd           | Website:  www.openfoam.com                      |
|    \\/     M anipulation  |                                                 |
\*---------------------------------------------------------------------------*/
Build  : c423ebec-20231012 OPENFOAM=2306 version=v2306
Arch   : "LSB;label=32;scalar=64"
Exec   : icoFoam -parallel -case /hkfs/work/workspace/scratch/eq4036-l3d/workspace/832c8a2900258a45609ab40cf93ab870/case
Date   : Jan 10 2024
Time   : 21:59:45
Host   : hkn0514.localdomain
PID    : 3528852
I/O    : uncollated
Case   : /hkfs/work/workspace/scratch/eq4036-l3d/workspace/832c8a2900258a45609ab40cf93ab870/case
nProcs : 4
Hosts  :
(
    (hkn0514.localdomain 4)
)
Pstream initialized with:
    floatTransfer      : false
    nProcsSimpleSum    : 0
    nonBlockingExchange: 0 (tuning: 0)
    exchange algorithm : -1
    commsType          : nonBlocking
    polling iterations : 0
trapFpe: Floating point exception trapping enabled (FOAM_SIGFPE).
fileModificationChecking : Monitoring run-time modified files using timeStampMaster (fileModificationSkew 5, maxFileModificationPolls 20)
allowSystemOperations : Allowing user-supplied system call operations

// * * * * * * * * * * * * * * * * * * * * * * * * * * * * * * * * * * * * * //
Create time

--> FOAM Warning : 
    From void* Foam::dlLibraryTable::openLibrary(const Foam::fileName&, bool)
    in file db/dynamicLibrary/dlLibraryTable/dlLibraryTable.C at line 188
    Could not load "libpetscFoam.so"
libpetscFoam.so: cannot open shared object file: No such file or directory
Create mesh for time = 0


PISO: Operating solver in PISO mode

Reading transportProperties

Reading field p

Reading field U

Reading/calculating face flux field phi


Starting time loop

Time = 0.00025

Courant Number mean: 8.24341e-18 max: 2.08167e-14
[INFO] MatrixAssemblyU: 399.939 [ms]
DILUPBiCGStab:  Solving for Ux, Initial residual = 1, Final residual = 0.00897261, No Iterations 5
DILUPBiCGStab:  Solving for Uy:  solution singularity
DILUPBiCGStab:  Solving for Uz:  solution singularity
[INFO] MomentumPredictor: 1435.73 [ms]
[INFO] MatrixAssemblyPI: 358.24 [ms]
[INFO] AdjustPhi: 17.336 [ms]
[INFO] ConstrainPressure: 0.006 [ms]
[INFO] MatrixAssemblyPII: 120.963 [ms]
[OGL LOG][lduLduBase.H:119] Initialising OGL
	OGL commit:  e75313f+
	Branch: dev 
	Build type: Debug
	Ginkgo version: 1.8.0 ( develop)
	Ginkgo commit: sparse-communicator
	MPI is GPU aware: 1
	Forces host buffer based communication: 0
	CPU ranks per GPU: 1
	Matrix format: Ell
	End OGL_INFO
[OGL LOG][Proc: 0]: global_index_init: 0.052 [ms]
[OGL LOG][Proc: 0]p_local_cols: call_init: 0.543 [ms]
[OGL LOG][Proc: 0]p_local_rows: call_init: 0.179 [ms]
[OGL LOG][Proc: 0]p_local_ldu_map: call_init: 0.39 [ms]
[OGL LOG][Proc: 0]p_local_coeffs: call_init: 3.445 [ms]
[OGL LOG][Proc: 0]p_non_local_cols: call_init: 0.298 [ms]
[OGL LOG][Proc: 0]p_non_local_rows: call_init: 0.116 [ms]
[OGL LOG][Proc: 0]p_non_local_ldu_map: call_init: 0.291 [ms]
[OGL LOG][Proc: 0]p_non_local_coeffs: call_init: 0.165 [ms]
[OGL LOG][Proc: 0]p: init_local_sparsity_pattern: 56103.2 [ms]
[OGL LOG][Proc: 0]p: init_non_local_sparsity_pattern: 232.585 [ms]
[OGL LOG][Proc: 0]p: update_local_matrix_data: 103.251 [ms]
[OGL LOG][Proc: 0]p: update_non_local_matrix_data: 1.194 [ms]
[OGL LOG][Proc: 0]device_partition: call_init: 0.191 [ms]
[OGL LOG][Proc: 0]p_matrix: call_init: 192.855 [ms]
[OGL LOG][Proc: 0]p_rhs: call_init: 2.531 [ms]
[OGL LOG][Proc: 0]p_solution: call_init: 3.843 [ms]
[OGL LOG][Preconditioner.H:121] Generate preconditioner BJ MaxBlockSize 1
[OGL LOG][Proc: 0]p: init_precond: 18.563 [ms]
[OGL LOG][StoppingCriterion.H:239] Creating stopping criterion with minIter 0 frequency 1
[OGL LOG][Proc: 0]p: generate_solver: 0.266 [ms]
[OGL LOG][Proc: 0]p: solve: 1221.95 [ms]
[OGL LOG][Proc: 0]p: copy_x_back: 5.188 [ms]
[OGL LOG][lduLduBase.H:330] 
Statistics:
	Time per iteration: 764 [mu s]
	Time per residual norm calculation: 2775.000000 [mu s]
	Time per iteration and DOF: 0.095500 [ns]
	Retrieve results bandwidth 3.084000 [GByte/s]
[OGL LOG][Proc: 0]p: solve_multi_gpu: 1448.56 [ms]
BJcudaGKOCG:  Solving for p, Initial residual = 1, Final residual = 9.91815e-05, No Iterations 1599
[INFO] SolveP: 58614 [ms]
time step continuity errors : sum local = 7.33384e-09, global = -1.09648e-20, cumulative = -1.09648e-20
[INFO] ContinuityError: 44.967 [ms]
[INFO] CorrectBoundary: 0.944 [ms]
[INFO] PISOStep: 59293.2 [ms]
[INFO] MatrixAssemblyPI: 349.86 [ms]
[INFO] AdjustPhi: 17.135 [ms]
[INFO] ConstrainPressure: 0.002 [ms]
[INFO] MatrixAssemblyPII: 113.551 [ms]
[OGL LOG][Proc: 0]: global_index_init: 0.014 [ms]
[OGL LOG][Proc: 0]p_local_coeffs: call_update: 0.001 [ms]
[OGL LOG][Proc: 0]p_non_local_coeffs: call_update: 0 [ms]
[OGL LOG][Proc: 0]p: update_local_matrix_data: 70.872 [ms]
[OGL LOG][Proc: 0]p: update_non_local_matrix_data: 0.966 [ms]
[OGL LOG][Proc: 0]p: regenerate_distributed_matrix: 190.342 [ms]
[OGL LOG][Proc: 0]p_matrix: call_update: 191.631 [ms]
[OGL LOG][Proc: 0]p_rhs: call_update: 1.871 [ms]
[OGL LOG][Preconditioner.H:121] Generate preconditioner BJ MaxBlockSize 1
[OGL LOG][Proc: 0]p: init_precond: 1.095 [ms]
[OGL LOG][StoppingCriterion.H:239] Creating stopping criterion with minIter 0 frequency 1
[OGL LOG][Proc: 0]p: generate_solver: 0.014 [ms]
[OGL LOG][Proc: 0]p: solve: 1148.58 [ms]
[OGL LOG][Proc: 0]p: copy_x_back: 5.065 [ms]
[OGL LOG][lduLduBase.H:330] 
Statistics:
	Time per iteration: 726 [mu s]
	Time per residual norm calculation: 131.000000 [mu s]
	Time per iteration and DOF: 0.090750 [ns]
	Retrieve results bandwidth 3.158000 [GByte/s]
[OGL LOG][Proc: 0]p: solve_multi_gpu: 1350.11 [ms]
BJcudaGKOCG:  Solving for p, Initial residual = 0.782727, Final residual = 9.99855e-05, No Iterations 1581
[INFO] SolveP: 1435.07 [ms]
time step continuity errors : sum local = 9.29854e-09, global = 4.26969e-22, cumulative = -1.05379e-20
[INFO] ContinuityError: 39.298 [ms]
[INFO] CorrectBoundary: 0.631 [ms]
[INFO] PISOStep: 2080.43 [ms]
[INFO] TimeStep: 63257.8 [ms]
ExecutionTime = 64.17 s  ClockTime = 64 s

Time = 0.0005

Courant Number mean: 0.0160084 max: 0.412533
[INFO] MatrixAssemblyU: 318.84 [ms]
DILUPBiCGStab:  Solving for Ux, Initial residual = 0.129594, Final residual = 0.00479226, No Iterations 5
DILUPBiCGStab:  Solving for Uy, Initial residual = 0.426506, Final residual = 0.0117086, No Iterations 5
DILUPBiCGStab:  Solving for Uz, Initial residual = 0.994268, Final residual = 0.0302626, No Iterations 5
[INFO] MomentumPredictor: 2675.92 [ms]
[INFO] MatrixAssemblyPI: 360.486 [ms]
[INFO] AdjustPhi: 17.023 [ms]
[INFO] ConstrainPressure: 0.003 [ms]
[INFO] MatrixAssemblyPII: 112.712 [ms]
[OGL LOG][Proc: 0]: global_index_init: 0.014 [ms]
[OGL LOG][Proc: 0]p_local_coeffs: call_update: 0 [ms]
[OGL LOG][Proc: 0]p_non_local_coeffs: call_update: 0 [ms]
[OGL LOG][Proc: 0]p: update_local_matrix_data: 70.41 [ms]
[OGL LOG][Proc: 0]p: update_non_local_matrix_data: 1.026 [ms]
[OGL LOG][Proc: 0]p: regenerate_distributed_matrix: 190.316 [ms]
[OGL LOG][Proc: 0]p_matrix: call_update: 191.481 [ms]
[OGL LOG][Proc: 0]p_rhs: call_update: 1.883 [ms]
[OGL LOG][Preconditioner.H:121] Generate preconditioner BJ MaxBlockSize 1
[OGL LOG][Proc: 0]p: init_precond: 1.136 [ms]
[OGL LOG][StoppingCriterion.H:239] Creating stopping criterion with minIter 948 frequency 11
[OGL LOG][Proc: 0]p: generate_solver: 0.016 [ms]
[OGL LOG][Proc: 0]p: solve: 952.684 [ms]
[OGL LOG][Proc: 0]p: copy_x_back: 5.046 [ms]
[OGL LOG][lduLduBase.H:330] 
Statistics:
	Time per iteration: 605 [mu s]
	Time per residual norm calculation: 132.000000 [mu s]
	Time per iteration and DOF: 0.075625 [ns]
	Retrieve results bandwidth 3.170000 [GByte/s]
[OGL LOG][Proc: 0]p: solve_multi_gpu: 1153.99 [ms]
BJcudaGKOCG:  Solving for p, Initial residual = 0.817248, Final residual = 9.2259e-05, No Iterations 1574
[INFO] SolveP: 1236.4 [ms]
time step continuity errors : sum local = 1.30013e-08, global = 6.57305e-22, cumulative = -9.88056e-21
[INFO] ContinuityError: 39.752 [ms]
[INFO] CorrectBoundary: 0.431 [ms]
[INFO] PISOStep: 1891.03 [ms]
[INFO] MatrixAssemblyPI: 347.996 [ms]
[INFO] AdjustPhi: 17.164 [ms]
[INFO] ConstrainPressure: 0.003 [ms]
[INFO] MatrixAssemblyPII: 113.309 [ms]
[OGL LOG][Proc: 0]: global_index_init: 0.02 [ms]
[OGL LOG][Proc: 0]p_local_coeffs: call_update: 0 [ms]
[OGL LOG][Proc: 0]p_non_local_coeffs: call_update: 0 [ms]
[OGL LOG][Proc: 0]p: update_local_matrix_data: 64.59 [ms]
[OGL LOG][Proc: 0]p: update_non_local_matrix_data: 1.024 [ms]
[OGL LOG][Proc: 0]p: regenerate_distributed_matrix: 183.178 [ms]
[OGL LOG][Proc: 0]p_matrix: call_update: 184.176 [ms]
[OGL LOG][Proc: 0]p_rhs: call_update: 1.816 [ms]
[OGL LOG][Preconditioner.H:121] Generate preconditioner BJ MaxBlockSize 1
[OGL LOG][Proc: 0]p: init_precond: 1.111 [ms]
[OGL LOG][StoppingCriterion.H:239] Creating stopping criterion with minIter 944 frequency 12
[OGL LOG][Proc: 0]p: generate_solver: 0.014 [ms]
[OGL LOG][Proc: 0]p: solve: 944.928 [ms]
[OGL LOG][Proc: 0]p: copy_x_back: 5.083 [ms]
[OGL LOG][lduLduBase.H:330] 
Statistics:
	Time per iteration: 600 [mu s]
	Time per residual norm calculation: 129.000000 [mu s]
	Time per iteration and DOF: 0.075000 [ns]
	Retrieve results bandwidth 3.147000 [GByte/s]
[OGL LOG][Proc: 0]p: solve_multi_gpu: 1138.82 [ms]
BJcudaGKOCG:  Solving for p, Initial residual = 0.761464, Final residual = 8.5177e-05, No Iterations 1573
[INFO] SolveP: 1215.45 [ms]
time step continuity errors : sum local = 1.22178e-08, global = 3.49855e-22, cumulative = -9.5307e-21
[INFO] ContinuityError: 39.23 [ms]
[INFO] CorrectBoundary: 0.377 [ms]
[INFO] PISOStep: 1857.49 [ms]
[INFO] TimeStep: 6786.25 [ms]
ExecutionTime = 70.94 s  ClockTime = 71 s

Time = 0.00075

Courant Number mean: 0.0244079 max: 0.471872
[INFO] MatrixAssemblyU: 348.15 [ms]
DILUPBiCGStab:  Solving for Ux, Initial residual = 0.0547015, Final residual = 0.00165646, No Iterations 5
DILUPBiCGStab:  Solving for Uy, Initial residual = 0.181533, Final residual = 0.006164, No Iterations 5
DILUPBiCGStab:  Solving for Uz, Initial residual = 0.816812, Final residual = 0.0222699, No Iterations 5
[INFO] MomentumPredictor: 2687.98 [ms]
[INFO] MatrixAssemblyPI: 375.039 [ms]
[INFO] AdjustPhi: 23.238 [ms]
[INFO] ConstrainPressure: 0.002 [ms]
[INFO] MatrixAssemblyPII: 120.474 [ms]
[OGL LOG][Proc: 0]: global_index_init: 0.014 [ms]
[OGL LOG][Proc: 0]p_local_coeffs: call_update: 0 [ms]
[OGL LOG][Proc: 0]p_non_local_coeffs: call_update: 0 [ms]
[OGL LOG][Proc: 0]p: update_local_matrix_data: 73.081 [ms]
[OGL LOG][Proc: 0]p: update_non_local_matrix_data: 0.988 [ms]
[OGL LOG][Proc: 0]p: regenerate_distributed_matrix: 191.193 [ms]
[OGL LOG][Proc: 0]p_matrix: call_update: 192.105 [ms]
[OGL LOG][Proc: 0]p_rhs: call_update: 5.3 [ms]
[OGL LOG][Preconditioner.H:121] Generate preconditioner BJ MaxBlockSize 1
[OGL LOG][Proc: 0]p: init_precond: 1.254 [ms]
[OGL LOG][StoppingCriterion.H:239] Creating stopping criterion with minIter 943 frequency 12
[OGL LOG][Proc: 0]p: generate_solver: 0.015 [ms]
[OGL LOG][Proc: 0]p: solve: 972.579 [ms]
[OGL LOG][Proc: 0]p: copy_x_back: 5.137 [ms]
[OGL LOG][lduLduBase.H:330] 
Statistics:
	Time per iteration: 618 [mu s]
	Time per residual norm calculation: 131.000000 [mu s]
	Time per iteration and DOF: 0.077250 [ns]
	Retrieve results bandwidth 3.114000 [GByte/s]
[OGL LOG][Proc: 0]p: solve_multi_gpu: 1178.1 [ms]
BJcudaGKOCG:  Solving for p, Initial residual = 0.845128, Final residual = 7.38073e-05, No Iterations 1573
[INFO] SolveP: 1262.69 [ms]
time step continuity errors : sum local = 9.65421e-09, global = 1.86057e-22, cumulative = -9.34465e-21
[INFO] ContinuityError: 39.225 [ms]
[INFO] CorrectBoundary: 0.4 [ms]
[INFO] PISOStep: 1950.18 [ms]
[INFO] MatrixAssemblyPI: 344.662 [ms]
[INFO] AdjustPhi: 17.217 [ms]
[INFO] ConstrainPressure: 0.003 [ms]
[INFO] MatrixAssemblyPII: 112.078 [ms]
[OGL LOG][Proc: 0]: global_index_init: 0.012 [ms]
[OGL LOG][Proc: 0]p_local_coeffs: call_update: 0 [ms]
[OGL LOG][Proc: 0]p_non_local_coeffs: call_update: 0 [ms]
[OGL LOG][Proc: 0]p: update_local_matrix_data: 62.571 [ms]
[OGL LOG][Proc: 0]p: update_non_local_matrix_data: 1.017 [ms]
[OGL LOG][Proc: 0]p: regenerate_distributed_matrix: 182.77 [ms]
[OGL LOG][Proc: 0]p_matrix: call_update: 183.769 [ms]
[OGL LOG][Proc: 0]p_rhs: call_update: 1.88 [ms]
[OGL LOG][Preconditioner.H:121] Generate preconditioner BJ MaxBlockSize 1
[OGL LOG][Proc: 0]p: init_precond: 1.126 [ms]
[OGL LOG][StoppingCriterion.H:239] Creating stopping criterion with minIter 943 frequency 12
[OGL LOG][Proc: 0]p: generate_solver: 0.014 [ms]
[OGL LOG][Proc: 0]p: solve: 943.476 [ms]
[OGL LOG][Proc: 0]p: copy_x_back: 4.901 [ms]
[OGL LOG][lduLduBase.H:330] 
Statistics:
	Time per iteration: 599 [mu s]
	Time per residual norm calculation: 143.000000 [mu s]
	Time per iteration and DOF: 0.074875 [ns]
	Retrieve results bandwidth 3.264000 [GByte/s]
[OGL LOG][Proc: 0]p: solve_multi_gpu: 1136.85 [ms]
BJcudaGKOCG:  Solving for p, Initial residual = 0.813524, Final residual = 6.63677e-05, No Iterations 1573
[INFO] SolveP: 1211.59 [ms]
time step continuity errors : sum local = 8.49419e-09, global = -1.02473e-21, cumulative = -1.03694e-20
[INFO] ContinuityError: 39.05 [ms]
[INFO] CorrectBoundary: 0.629 [ms]
[INFO] PISOStep: 1855.37 [ms]
[INFO] TimeStep: 6881.54 [ms]
ExecutionTime = 77.81 s  ClockTime = 78 s

Time = 0.001

Courant Number mean: 0.0292899 max: 0.467811
[INFO] MatrixAssemblyU: 349.077 [ms]
DILUPBiCGStab:  Solving for Ux, Initial residual = 0.0345692, Final residual = 0.00111804, No Iterations 5
DILUPBiCGStab:  Solving for Uy, Initial residual = 0.128623, Final residual = 0.00393488, No Iterations 5
DILUPBiCGStab:  Solving for Uz, Initial residual = 0.601779, Final residual = 0.0140845, No Iterations 5
[INFO] MomentumPredictor: 2696.27 [ms]
[INFO] MatrixAssemblyPI: 375.23 [ms]
[INFO] AdjustPhi: 23.165 [ms]
[INFO] ConstrainPressure: 0.002 [ms]
[INFO] MatrixAssemblyPII: 121.49 [ms]
[OGL LOG][Proc: 0]: global_index_init: 0.034 [ms]
[OGL LOG][Proc: 0]p_local_coeffs: call_update: 0 [ms]
[OGL LOG][Proc: 0]p_non_local_coeffs: call_update: 0 [ms]
[OGL LOG][Proc: 0]p: update_local_matrix_data: 72.589 [ms]
[OGL LOG][Proc: 0]p: update_non_local_matrix_data: 1 [ms]
[OGL LOG][Proc: 0]p: regenerate_distributed_matrix: 191.537 [ms]
[OGL LOG][Proc: 0]p_matrix: call_update: 192.519 [ms]
[OGL LOG][Proc: 0]p_rhs: call_update: 4.872 [ms]
[OGL LOG][Preconditioner.H:121] Generate preconditioner BJ MaxBlockSize 1
[OGL LOG][Proc: 0]p: init_precond: 1.155 [ms]
[OGL LOG][StoppingCriterion.H:239] Creating stopping criterion with minIter 943 frequency 12
[OGL LOG][Proc: 0]p: generate_solver: 0.014 [ms]
[OGL LOG][Proc: 0]p: solve: 614.339 [ms]
[OGL LOG][Proc: 0]p: copy_x_back: 5.009 [ms]
[OGL LOG][lduLduBase.H:330] 
Statistics:
	Time per iteration: 647 [mu s]
	Time per residual norm calculation: 143.000000 [mu s]
	Time per iteration and DOF: 0.080875 [ns]
	Retrieve results bandwidth 3.194000 [GByte/s]
[OGL LOG][Proc: 0]p: solve_multi_gpu: 819.605 [ms]
BJcudaGKOCG:  Solving for p, Initial residual = 0.763865, Final residual = 5.00818e-05, No Iterations 949
[INFO] SolveP: 903.753 [ms]
time step continuity errors : sum local = 6.39719e-09, global = 6.51715e-22, cumulative = -9.71766e-21
[INFO] ContinuityError: 39.362 [ms]
[INFO] CorrectBoundary: 0.615 [ms]
[INFO] PISOStep: 1593.16 [ms]
[INFO] MatrixAssemblyPI: 344.374 [ms]
[INFO] AdjustPhi: 17.191 [ms]
[INFO] ConstrainPressure: 0.003 [ms]
[INFO] MatrixAssemblyPII: 112.182 [ms]
[OGL LOG][Proc: 0]: global_index_init: 0.014 [ms]
[OGL LOG][Proc: 0]p_local_coeffs: call_update: 0 [ms]
[OGL LOG][Proc: 0]p_non_local_coeffs: call_update: 0 [ms]
[OGL LOG][Proc: 0]p: update_local_matrix_data: 62.408 [ms]
[OGL LOG][Proc: 0]p: update_non_local_matrix_data: 1.016 [ms]
[OGL LOG][Proc: 0]p: regenerate_distributed_matrix: 182.902 [ms]
[OGL LOG][Proc: 0]p_matrix: call_update: 183.955 [ms]
[OGL LOG][Proc: 0]p_rhs: call_update: 1.806 [ms]
[OGL LOG][Preconditioner.H:121] Generate preconditioner BJ MaxBlockSize 1
[OGL LOG][Proc: 0]p: init_precond: 1.102 [ms]
[OGL LOG][StoppingCriterion.H:239] Creating stopping criterion with minIter 569 frequency 9
[OGL LOG][Proc: 0]p: generate_solver: 0.014 [ms]
[OGL LOG][Proc: 0]p: solve: 492.464 [ms]
[OGL LOG][Proc: 0]p: copy_x_back: 5.009 [ms]
[OGL LOG][lduLduBase.H:330] 
Statistics:
	Time per iteration: 642 [mu s]
	Time per residual norm calculation: 132.000000 [mu s]
	Time per iteration and DOF: 0.080250 [ns]
	Retrieve results bandwidth 3.194000 [GByte/s]
[OGL LOG][Proc: 0]p: solve_multi_gpu: 685.961 [ms]
BJcudaGKOCG:  Solving for p, Initial residual = 0.702003, Final residual = 7.45249e-05, No Iterations 766
[INFO] SolveP: 760.447 [ms]
time step continuity errors : sum local = 9.09278e-09, global = -9.03798e-22, cumulative = -1.06215e-20
[INFO] ContinuityError: 39.073 [ms]
[INFO] CorrectBoundary: 0.39 [ms]
[INFO] PISOStep: 1397.42 [ms]
[INFO] TimeStep: 6075.62 [ms]
ExecutionTime = 83.87 s  ClockTime = 84 s

Time = 0.00125

Courant Number mean: 0.033439 max: 0.472819
[INFO] MatrixAssemblyU: 322.424 [ms]
DILUPBiCGStab:  Solving for Ux, Initial residual = 0.027026, Final residual = 0.000803683, No Iterations 5
DILUPBiCGStab:  Solving for Uy, Initial residual = 0.0807774, Final residual = 0.00307331, No Iterations 5
DILUPBiCGStab:  Solving for Uz, Initial residual = 0.448757, Final residual = 0.0105793, No Iterations 5
[INFO] MomentumPredictor: 2699.88 [ms]
[INFO] MatrixAssemblyPI: 377.481 [ms]
[INFO] AdjustPhi: 24.009 [ms]
[INFO] ConstrainPressure: 0.003 [ms]
[INFO] MatrixAssemblyPII: 122.364 [ms]
[OGL LOG][Proc: 0]: global_index_init: 0.168 [ms]
[OGL LOG][Proc: 0]p_local_coeffs: call_update: 0 [ms]
[OGL LOG][Proc: 0]p_non_local_coeffs: call_update: 0 [ms]
[OGL LOG][Proc: 0]p: update_local_matrix_data: 73.237 [ms]
[OGL LOG][Proc: 0]p: update_non_local_matrix_data: 1.079 [ms]
[OGL LOG][Proc: 0]p: regenerate_distributed_matrix: 191.664 [ms]
[OGL LOG][Proc: 0]p_matrix: call_update: 192.716 [ms]
[OGL LOG][Proc: 0]p_rhs: call_update: 4.791 [ms]
[OGL LOG][Preconditioner.H:121] Generate preconditioner BJ MaxBlockSize 1
[OGL LOG][Proc: 0]p: init_precond: 1.19 [ms]
[OGL LOG][StoppingCriterion.H:239] Creating stopping criterion with minIter 459 frequency 8
[OGL LOG][Proc: 0]p: generate_solver: 0.014 [ms]
[OGL LOG][Proc: 0]p: solve: 506.668 [ms]
[OGL LOG][Proc: 0]p: copy_x_back: 5.086 [ms]
[OGL LOG][lduLduBase.H:330] 
Statistics:
	Time per iteration: 680 [mu s]
	Time per residual norm calculation: 130.000000 [mu s]
	Time per iteration and DOF: 0.085000 [ns]
	Retrieve results bandwidth 3.145000 [GByte/s]
[OGL LOG][Proc: 0]p: solve_multi_gpu: 712.08 [ms]
BJcudaGKOCG:  Solving for p, Initial residual = 0.769678, Final residual = 8.34165e-05, No Iterations 745
[INFO] SolveP: 797.069 [ms]
time step continuity errors : sum local = 8.37791e-09, global = 3.09159e-22, cumulative = -1.03123e-20
[INFO] ContinuityError: 39.239 [ms]
[INFO] CorrectBoundary: 1.33 [ms]
[INFO] PISOStep: 1491.76 [ms]
[INFO] MatrixAssemblyPI: 344.534 [ms]
[INFO] AdjustPhi: 17.11 [ms]
[INFO] ConstrainPressure: 0.002 [ms]
[INFO] MatrixAssemblyPII: 112.029 [ms]
[OGL LOG][Proc: 0]: global_index_init: 0.014 [ms]
[OGL LOG][Proc: 0]p_local_coeffs: call_update: 0 [ms]
[OGL LOG][Proc: 0]p_non_local_coeffs: call_update: 0 [ms]
[OGL LOG][Proc: 0]p: update_local_matrix_data: 62.423 [ms]
[OGL LOG][Proc: 0]p: update_non_local_matrix_data: 1.038 [ms]
[OGL LOG][Proc: 0]p: regenerate_distributed_matrix: 183.311 [ms]
[OGL LOG][Proc: 0]p_matrix: call_update: 184.335 [ms]
[OGL LOG][Proc: 0]p_rhs: call_update: 1.832 [ms]
[OGL LOG][Preconditioner.H:121] Generate preconditioner BJ MaxBlockSize 1
[OGL LOG][Proc: 0]p: init_precond: 1.123 [ms]
[OGL LOG][StoppingCriterion.H:239] Creating stopping criterion with minIter 447 frequency 7
[OGL LOG][Proc: 0]p: generate_solver: 0.016 [ms]
[OGL LOG][Proc: 0]p: solve: 484.142 [ms]
[OGL LOG][Proc: 0]p: copy_x_back: 5.078 [ms]
[OGL LOG][lduLduBase.H:330] 
Statistics:
	Time per iteration: 651 [mu s]
	Time per residual norm calculation: 136.000000 [mu s]
	Time per iteration and DOF: 0.081375 [ns]
	Retrieve results bandwidth 3.150000 [GByte/s]
[OGL LOG][Proc: 0]p: solve_multi_gpu: 678.263 [ms]
BJcudaGKOCG:  Solving for p, Initial residual = 0.719491, Final residual = 8.13878e-05, No Iterations 743
[INFO] SolveP: 752.607 [ms]
time step continuity errors : sum local = 7.94009e-09, global = -1.62154e-21, cumulative = -1.19338e-20
[INFO] ContinuityError: 39.16 [ms]
[INFO] CorrectBoundary: 0.391 [ms]
[INFO] PISOStep: 1389.42 [ms]
[INFO] TimeStep: 5943.7 [ms]
ExecutionTime = 89.8 s  ClockTime = 90 s

Time = 0.0015

Courant Number mean: 0.0367439 max: 0.475584
[INFO] MatrixAssemblyU: 344.872 [ms]
DILUPBiCGStab:  Solving for Ux, Initial residual = 0.0203088, Final residual = 0.000578139, No Iterations 5
DILUPBiCGStab:  Solving for Uy, Initial residual = 0.0653829, Final residual = 0.00203125, No Iterations 5
DILUPBiCGStab:  Solving for Uz, Initial residual = 0.325336, Final residual = 0.00753417, No Iterations 5
[INFO] MomentumPredictor: 2680.49 [ms]
[INFO] MatrixAssemblyPI: 374.4 [ms]
[INFO] AdjustPhi: 23.355 [ms]
[INFO] ConstrainPressure: 0.003 [ms]
[INFO] MatrixAssemblyPII: 120.539 [ms]
[OGL LOG][Proc: 0]: global_index_init: 0.398 [ms]
[OGL LOG][Proc: 0]p_local_coeffs: call_update: 0 [ms]
[OGL LOG][Proc: 0]p_non_local_coeffs: call_update: 0 [ms]
[OGL LOG][Proc: 0]p: update_local_matrix_data: 72.385 [ms]
[OGL LOG][Proc: 0]p: update_non_local_matrix_data: 0.997 [ms]
[OGL LOG][Proc: 0]p: regenerate_distributed_matrix: 190.455 [ms]
[OGL LOG][Proc: 0]p_matrix: call_update: 191.38 [ms]
[OGL LOG][Proc: 0]p_rhs: call_update: 5.384 [ms]
[OGL LOG][Preconditioner.H:121] Generate preconditioner BJ MaxBlockSize 1
[OGL LOG][Proc: 0]p: init_precond: 1.182 [ms]
[OGL LOG][StoppingCriterion.H:239] Creating stopping criterion with minIter 445 frequency 8
[OGL LOG][Proc: 0]p: generate_solver: 0.016 [ms]
[OGL LOG][Proc: 0]p: solve: 507.337 [ms]
[OGL LOG][Proc: 0]p: copy_x_back: 5.005 [ms]
[OGL LOG][lduLduBase.H:330] 
Statistics:
	Time per iteration: 680 [mu s]
	Time per residual norm calculation: 130.000000 [mu s]
	Time per iteration and DOF: 0.085000 [ns]
	Retrieve results bandwidth 3.196000 [GByte/s]
[OGL LOG][Proc: 0]p: solve_multi_gpu: 712.019 [ms]
BJcudaGKOCG:  Solving for p, Initial residual = 0.674192, Final residual = 9.5965e-05, No Iterations 745
[INFO] SolveP: 796.324 [ms]
time step continuity errors : sum local = 9.69667e-09, global = -2.12684e-21, cumulative = -1.40607e-20
[INFO] ContinuityError: 39.278 [ms]
[INFO] CorrectBoundary: 2.583 [ms]
[INFO] PISOStep: 1487.54 [ms]
[INFO] MatrixAssemblyPI: 347.901 [ms]
[INFO] AdjustPhi: 17.1 [ms]
[INFO] ConstrainPressure: 0.002 [ms]
[INFO] MatrixAssemblyPII: 111.868 [ms]
[OGL LOG][Proc: 0]: global_index_init: 0.015 [ms]
[OGL LOG][Proc: 0]p_local_coeffs: call_update: 0 [ms]
[OGL LOG][Proc: 0]p_non_local_coeffs: call_update: 0 [ms]
[OGL LOG][Proc: 0]p: update_local_matrix_data: 62.324 [ms]
[OGL LOG][Proc: 0]p: update_non_local_matrix_data: 1.036 [ms]
[OGL LOG][Proc: 0]p: regenerate_distributed_matrix: 183.492 [ms]
[OGL LOG][Proc: 0]p_matrix: call_update: 184.708 [ms]
[OGL LOG][Proc: 0]p_rhs: call_update: 1.855 [ms]
[OGL LOG][Preconditioner.H:121] Generate preconditioner BJ MaxBlockSize 1
[OGL LOG][Proc: 0]p: init_precond: 1.088 [ms]
[OGL LOG][StoppingCriterion.H:239] Creating stopping criterion with minIter 447 frequency 7
[OGL LOG][Proc: 0]p: generate_solver: 0.014 [ms]
[OGL LOG][Proc: 0]p: solve: 477.798 [ms]
[OGL LOG][Proc: 0]p: copy_x_back: 5.005 [ms]
[OGL LOG][lduLduBase.H:330] 
Statistics:
	Time per iteration: 649 [mu s]
	Time per residual norm calculation: 134.000000 [mu s]
	Time per iteration and DOF: 0.081125 [ns]
	Retrieve results bandwidth 3.196000 [GByte/s]
[OGL LOG][Proc: 0]p: solve_multi_gpu: 672.165 [ms]
BJcudaGKOCG:  Solving for p, Initial residual = 0.614083, Final residual = 9.82876e-05, No Iterations 736
[INFO] SolveP: 746.494 [ms]
time step continuity errors : sum local = 9.24368e-09, global = -3.89395e-22, cumulative = -1.44501e-20
[INFO] ContinuityError: 39.048 [ms]
[INFO] CorrectBoundary: 0.394 [ms]
[INFO] PISOStep: 1386.53 [ms]
[INFO] TimeStep: 5939.41 [ms]
ExecutionTime = 95.73 s  ClockTime = 96 s

Time = 0.00175

Courant Number mean: 0.0396611 max: 0.477536
[INFO] MatrixAssemblyU: 325.369 [ms]
DILUPBiCGStab:  Solving for Ux, Initial residual = 0.0173431, Final residual = 0.000456509, No Iterations 5
DILUPBiCGStab:  Solving for Uy, Initial residual = 0.0485647, Final residual = 0.00148778, No Iterations 5
DILUPBiCGStab:  Solving for Uz, Initial residual = 0.250669, Final residual = 0.00692227, No Iterations 5
[INFO] MomentumPredictor: 2702.32 [ms]
[INFO] MatrixAssemblyPI: 378.74 [ms]
[INFO] AdjustPhi: 23.833 [ms]
[INFO] ConstrainPressure: 0.003 [ms]
[INFO] MatrixAssemblyPII: 121.022 [ms]
[OGL LOG][Proc: 0]: global_index_init: 0.098 [ms]
[OGL LOG][Proc: 0]p_local_coeffs: call_update: 0 [ms]
[OGL LOG][Proc: 0]p_non_local_coeffs: call_update: 0 [ms]
[OGL LOG][Proc: 0]p: update_local_matrix_data: 73.56 [ms]
[OGL LOG][Proc: 0]p: update_non_local_matrix_data: 1.016 [ms]
[OGL LOG][Proc: 0]p: regenerate_distributed_matrix: 191.519 [ms]
[OGL LOG][Proc: 0]p_matrix: call_update: 192.393 [ms]
[OGL LOG][Proc: 0]p_rhs: call_update: 4.833 [ms]
[OGL LOG][Preconditioner.H:121] Generate preconditioner BJ MaxBlockSize 1
[OGL LOG][Proc: 0]p: init_precond: 1.147 [ms]
[OGL LOG][StoppingCriterion.H:239] Creating stopping criterion with minIter 441 frequency 8
[OGL LOG][Proc: 0]p: generate_solver: 0.019 [ms]
[OGL LOG][Proc: 0]p: solve: 945.563 [ms]
[OGL LOG][Proc: 0]p: copy_x_back: 5.01 [ms]
[OGL LOG][lduLduBase.H:330] 
Statistics:
	Time per iteration: 624 [mu s]
	Time per residual norm calculation: 132.000000 [mu s]
	Time per iteration and DOF: 0.078000 [ns]
	Retrieve results bandwidth 3.193000 [GByte/s]
[OGL LOG][Proc: 0]p: solve_multi_gpu: 1150.68 [ms]
BJcudaGKOCG:  Solving for p, Initial residual = 0.669395, Final residual = 8.63616e-05, No Iterations 1513
[INFO] SolveP: 1235.72 [ms]
time step continuity errors : sum local = 6.52118e-09, global = -1.95024e-21, cumulative = -1.64003e-20
[INFO] ContinuityError: 39.187 [ms]
[INFO] CorrectBoundary: 0.415 [ms]
[INFO] PISOStep: 1928.71 [ms]
[INFO] MatrixAssemblyPI: 343.325 [ms]
[INFO] AdjustPhi: 17.099 [ms]
[INFO] ConstrainPressure: 0.003 [ms]
[INFO] MatrixAssemblyPII: 112.301 [ms]
[OGL LOG][Proc: 0]: global_index_init: 0.016 [ms]
[OGL LOG][Proc: 0]p_local_coeffs: call_update: 0 [ms]
[OGL LOG][Proc: 0]p_non_local_coeffs: call_update: 0 [ms]
[OGL LOG][Proc: 0]p: update_local_matrix_data: 62.509 [ms]
[OGL LOG][Proc: 0]p: update_non_local_matrix_data: 1.053 [ms]
[OGL LOG][Proc: 0]p: regenerate_distributed_matrix: 183.336 [ms]
[OGL LOG][Proc: 0]p_matrix: call_update: 184.41 [ms]
[OGL LOG][Proc: 0]p_rhs: call_update: 1.863 [ms]
[OGL LOG][Preconditioner.H:121] Generate preconditioner BJ MaxBlockSize 1
[OGL LOG][Proc: 0]p: init_precond: 1.125 [ms]
[OGL LOG][StoppingCriterion.H:239] Creating stopping criterion with minIter 907 frequency 12
[OGL LOG][Proc: 0]p: generate_solver: 0.015 [ms]
[OGL LOG][Proc: 0]p: solve: 908.768 [ms]
[OGL LOG][Proc: 0]p: copy_x_back: 5.022 [ms]
[OGL LOG][lduLduBase.H:330] 
Statistics:
	Time per iteration: 600 [mu s]
	Time per residual norm calculation: 131.000000 [mu s]
	Time per iteration and DOF: 0.075000 [ns]
	Retrieve results bandwidth 3.185000 [GByte/s]
[OGL LOG][Proc: 0]p: solve_multi_gpu: 1102.92 [ms]
BJcudaGKOCG:  Solving for p, Initial residual = 0.61037, Final residual = 7.83287e-05, No Iterations 1513
[INFO] SolveP: 1177.44 [ms]
time step continuity errors : sum local = 5.88536e-09, global = 2.43343e-21, cumulative = -1.39669e-20
[INFO] ContinuityError: 39.475 [ms]
[INFO] CorrectBoundary: 0.75 [ms]
[INFO] PISOStep: 1813.7 [ms]
[INFO] TimeStep: 6810.1 [ms]
ExecutionTime = 102.52 s  ClockTime = 103 s

Time = 0.002

Courant Number mean: 0.0421872 max: 0.47923
[INFO] MatrixAssemblyU: 352.375 [ms]
DILUPBiCGStab:  Solving for Ux, Initial residual = 0.0142042, Final residual = 0.000349983, No Iterations 5
DILUPBiCGStab:  Solving for Uy, Initial residual = 0.0414034, Final residual = 0.00112876, No Iterations 5
DILUPBiCGStab:  Solving for Uz, Initial residual = 0.194995, Final residual = 0.00520343, No Iterations 5
[INFO] MomentumPredictor: 2689.1 [ms]
[INFO] MatrixAssemblyPI: 376.795 [ms]
[INFO] AdjustPhi: 23.037 [ms]
[INFO] ConstrainPressure: 0.002 [ms]
[INFO] MatrixAssemblyPII: 120.474 [ms]
[OGL LOG][Proc: 0]: global_index_init: 0.06 [ms]
[OGL LOG][Proc: 0]p_local_coeffs: call_update: 0 [ms]
[OGL LOG][Proc: 0]p_non_local_coeffs: call_update: 0 [ms]
[OGL LOG][Proc: 0]p: update_local_matrix_data: 72.75 [ms]
[OGL LOG][Proc: 0]p: update_non_local_matrix_data: 1.13 [ms]
[OGL LOG][Proc: 0]p: regenerate_distributed_matrix: 191.356 [ms]
[OGL LOG][Proc: 0]p_matrix: call_update: 192.441 [ms]
[OGL LOG][Proc: 0]p_rhs: call_update: 5.021 [ms]
[OGL LOG][Preconditioner.H:121] Generate preconditioner BJ MaxBlockSize 1
[OGL LOG][Proc: 0]p: init_precond: 1.191 [ms]
[OGL LOG][StoppingCriterion.H:239] Creating stopping criterion with minIter 907 frequency 12
[OGL LOG][Proc: 0]p: generate_solver: 0.015 [ms]
[OGL LOG][Proc: 0]p: solve: 933.718 [ms]
[OGL LOG][Proc: 0]p: copy_x_back: 5.015 [ms]
[OGL LOG][lduLduBase.H:330] 
Statistics:
	Time per iteration: 617 [mu s]
	Time per residual norm calculation: 135.000000 [mu s]
	Time per iteration and DOF: 0.077125 [ns]
	Retrieve results bandwidth 3.190000 [GByte/s]
[OGL LOG][Proc: 0]p: solve_multi_gpu: 1139.12 [ms]
BJcudaGKOCG:  Solving for p, Initial residual = 0.576932, Final residual = 9.43214e-05, No Iterations 1513
[INFO] SolveP: 1223.52 [ms]
time step continuity errors : sum local = 6.78881e-09, global = -1.73908e-21, cumulative = -1.5706e-20
[INFO] ContinuityError: 39.198 [ms]
[INFO] CorrectBoundary: 0.39 [ms]
[INFO] PISOStep: 1912.47 [ms]
[INFO] MatrixAssemblyPI: 345.079 [ms]
[INFO] AdjustPhi: 17.259 [ms]
[INFO] ConstrainPressure: 0.004 [ms]
[INFO] MatrixAssemblyPII: 112.205 [ms]
[OGL LOG][Proc: 0]: global_index_init: 0.014 [ms]
[OGL LOG][Proc: 0]p_local_coeffs: call_update: 0 [ms]
[OGL LOG][Proc: 0]p_non_local_coeffs: call_update: 0 [ms]
[OGL LOG][Proc: 0]p: update_local_matrix_data: 63.611 [ms]
[OGL LOG][Proc: 0]p: update_non_local_matrix_data: 1.045 [ms]
[OGL LOG][Proc: 0]p: regenerate_distributed_matrix: 184.478 [ms]
[OGL LOG][Proc: 0]p_matrix: call_update: 185.662 [ms]
[OGL LOG][Proc: 0]p_rhs: call_update: 1.833 [ms]
[OGL LOG][Preconditioner.H:121] Generate preconditioner BJ MaxBlockSize 1
[OGL LOG][Proc: 0]p: init_precond: 1.109 [ms]
[OGL LOG][StoppingCriterion.H:239] Creating stopping criterion with minIter 907 frequency 12
[OGL LOG][Proc: 0]p: generate_solver: 0.014 [ms]
[OGL LOG][Proc: 0]p: solve: 907.202 [ms]
[OGL LOG][Proc: 0]p: copy_x_back: 5.024 [ms]
[OGL LOG][lduLduBase.H:330] 
Statistics:
	Time per iteration: 599 [mu s]
	Time per residual norm calculation: 131.000000 [mu s]
	Time per iteration and DOF: 0.074875 [ns]
	Retrieve results bandwidth 3.184000 [GByte/s]
[OGL LOG][Proc: 0]p: solve_multi_gpu: 1102.46 [ms]
BJcudaGKOCG:  Solving for p, Initial residual = 0.519824, Final residual = 8.65309e-05, No Iterations 1513
[INFO] SolveP: 1178.16 [ms]
time step continuity errors : sum local = 6.21352e-09, global = -1.50727e-21, cumulative = -1.72132e-20
[INFO] ContinuityError: 39.082 [ms]
[INFO] CorrectBoundary: 0.403 [ms]
[INFO] PISOStep: 1820.06 [ms]
[INFO] TimeStep: 6813.9 [ms]
ExecutionTime = 109.31 s  ClockTime = 110 s

Time = 0.00225

Courant Number mean: 0.0444723 max: 0.480385
[INFO] MatrixAssemblyU: 328.087 [ms]
DILUPBiCGStab:  Solving for Ux, Initial residual = 0.0125023, Final residual = 0.000286696, No Iterations 5
DILUPBiCGStab:  Solving for Uy, Initial residual = 0.0332815, Final residual = 0.000787302, No Iterations 5
DILUPBiCGStab:  Solving for Uz, Initial residual = 0.156743, Final residual = 0.00491908, No Iterations 5
[INFO] MomentumPredictor: 2698.86 [ms]
[INFO] MatrixAssemblyPI: 377.771 [ms]
[INFO] AdjustPhi: 23.795 [ms]
[INFO] ConstrainPressure: 0.002 [ms]
[INFO] MatrixAssemblyPII: 120.584 [ms]
[OGL LOG][Proc: 0]: global_index_init: 0.152 [ms]
[OGL LOG][Proc: 0]p_local_coeffs: call_update: 0 [ms]
[OGL LOG][Proc: 0]p_non_local_coeffs: call_update: 0 [ms]
[OGL LOG][Proc: 0]p: update_local_matrix_data: 73.135 [ms]
[OGL LOG][Proc: 0]p: update_non_local_matrix_data: 1.004 [ms]
[OGL LOG][Proc: 0]p: regenerate_distributed_matrix: 190.888 [ms]
[OGL LOG][Proc: 0]p_matrix: call_update: 191.837 [ms]
[OGL LOG][Proc: 0]p_rhs: call_update: 4.693 [ms]
[OGL LOG][Preconditioner.H:121] Generate preconditioner BJ MaxBlockSize 1
[OGL LOG][Proc: 0]p: init_precond: 1.122 [ms]
[OGL LOG][StoppingCriterion.H:239] Creating stopping criterion with minIter 907 frequency 12
[OGL LOG][Proc: 0]p: generate_solver: 0.015 [ms]
[OGL LOG][Proc: 0]p: solve: 921.451 [ms]
[OGL LOG][Proc: 0]p: copy_x_back: 4.955 [ms]
[OGL LOG][lduLduBase.H:330] 
Statistics:
	Time per iteration: 618 [mu s]
	Time per residual norm calculation: 134.000000 [mu s]
	Time per iteration and DOF: 0.077250 [ns]
	Retrieve results bandwidth 3.229000 [GByte/s]
[OGL LOG][Proc: 0]p: solve_multi_gpu: 1125.85 [ms]
BJcudaGKOCG:  Solving for p, Initial residual = 0.563108, Final residual = 9.98648e-05, No Iterations 1489
[INFO] SolveP: 1210.56 [ms]
time step continuity errors : sum local = 6.23322e-09, global = 3.69055e-22, cumulative = -1.68442e-20
[INFO] ContinuityError: 39.23 [ms]
[INFO] CorrectBoundary: 0.399 [ms]
[INFO] PISOStep: 1902.6 [ms]
[INFO] MatrixAssemblyPI: 347.108 [ms]
[INFO] AdjustPhi: 17.097 [ms]
[INFO] ConstrainPressure: 0.002 [ms]
[INFO] MatrixAssemblyPII: 111.962 [ms]
[OGL LOG][Proc: 0]: global_index_init: 0.031 [ms]
[OGL LOG][Proc: 0]p_local_coeffs: call_update: 0 [ms]
[OGL LOG][Proc: 0]p_non_local_coeffs: call_update: 0 [ms]
[OGL LOG][Proc: 0]p: update_local_matrix_data: 62.202 [ms]
[OGL LOG][Proc: 0]p: update_non_local_matrix_data: 1.024 [ms]
[OGL LOG][Proc: 0]p: regenerate_distributed_matrix: 183.083 [ms]
[OGL LOG][Proc: 0]p_matrix: call_update: 184.138 [ms]
[OGL LOG][Proc: 0]p_rhs: call_update: 1.815 [ms]
[OGL LOG][Preconditioner.H:121] Generate preconditioner BJ MaxBlockSize 1
[OGL LOG][Proc: 0]p: init_precond: 1.109 [ms]
[OGL LOG][StoppingCriterion.H:239] Creating stopping criterion with minIter 893 frequency 12
[OGL LOG][Proc: 0]p: generate_solver: 0.014 [ms]
[OGL LOG][Proc: 0]p: solve: 895.376 [ms]
[OGL LOG][Proc: 0]p: copy_x_back: 4.993 [ms]
[OGL LOG][lduLduBase.H:330] 
Statistics:
	Time per iteration: 601 [mu s]
	Time per residual norm calculation: 133.000000 [mu s]
	Time per iteration and DOF: 0.075125 [ns]
	Retrieve results bandwidth 3.204000 [GByte/s]
[OGL LOG][Proc: 0]p: solve_multi_gpu: 1089.15 [ms]
BJcudaGKOCG:  Solving for p, Initial residual = 0.502878, Final residual = 9.25452e-05, No Iterations 1489
[INFO] SolveP: 1163.32 [ms]
time step continuity errors : sum local = 5.77586e-09, global = -1.75259e-21, cumulative = -1.85968e-20
[INFO] ContinuityError: 39.296 [ms]
[INFO] CorrectBoundary: 0.395 [ms]
[INFO] PISOStep: 1802.92 [ms]
[INFO] TimeStep: 6772.68 [ms]
ExecutionTime = 116.07 s  ClockTime = 116 s

Time = 0.0025

Courant Number mean: 0.046526 max: 0.481483
[INFO] MatrixAssemblyU: 346.168 [ms]
DILUPBiCGStab:  Solving for Ux, Initial residual = 0.0107499, Final residual = 0.000230519, No Iterations 5
DILUPBiCGStab:  Solving for Uy, Initial residual = 0.0291864, Final residual = 0.000635074, No Iterations 5
DILUPBiCGStab:  Solving for Uz, Initial residual = 0.126041, Final residual = 0.00393472, No Iterations 5
[INFO] MomentumPredictor: 2704.45 [ms]
[INFO] MatrixAssemblyPI: 378.058 [ms]
[INFO] AdjustPhi: 23.481 [ms]
[INFO] ConstrainPressure: 0.002 [ms]
[INFO] MatrixAssemblyPII: 120.441 [ms]
[OGL LOG][Proc: 0]: global_index_init: 0.047 [ms]
[OGL LOG][Proc: 0]p_local_coeffs: call_update: 0 [ms]
[OGL LOG][Proc: 0]p_non_local_coeffs: call_update: 0 [ms]
[OGL LOG][Proc: 0]p: update_local_matrix_data: 72.919 [ms]
[OGL LOG][Proc: 0]p: update_non_local_matrix_data: 1.033 [ms]
[OGL LOG][Proc: 0]p: regenerate_distributed_matrix: 191.471 [ms]
[OGL LOG][Proc: 0]p_matrix: call_update: 192.513 [ms]
[OGL LOG][Proc: 0]p_rhs: call_update: 4.893 [ms]
[OGL LOG][Preconditioner.H:121] Generate preconditioner BJ MaxBlockSize 1
[OGL LOG][Proc: 0]p: init_precond: 1.153 [ms]
[OGL LOG][StoppingCriterion.H:239] Creating stopping criterion with minIter 893 frequency 12
[OGL LOG][Proc: 0]p: generate_solver: 0.015 [ms]
[OGL LOG][Proc: 0]p: solve: 920.003 [ms]
[OGL LOG][Proc: 0]p: copy_x_back: 4.988 [ms]
[OGL LOG][lduLduBase.H:330] 
Statistics:
	Time per iteration: 617 [mu s]
	Time per residual norm calculation: 132.000000 [mu s]
	Time per iteration and DOF: 0.077125 [ns]
	Retrieve results bandwidth 3.207000 [GByte/s]
[OGL LOG][Proc: 0]p: solve_multi_gpu: 1125.24 [ms]
BJcudaGKOCG:  Solving for p, Initial residual = 0.485727, Final residual = 9.84005e-05, No Iterations 1489
[INFO] SolveP: 1209.74 [ms]
time step continuity errors : sum local = 5.96698e-09, global = -1.47428e-21, cumulative = -2.00711e-20
[INFO] ContinuityError: 39.267 [ms]
[INFO] CorrectBoundary: 0.388 [ms]
[INFO] PISOStep: 1900.22 [ms]
[INFO] MatrixAssemblyPI: 344.504 [ms]
[INFO] AdjustPhi: 17.173 [ms]
[INFO] ConstrainPressure: 0.003 [ms]
[INFO] MatrixAssemblyPII: 118.019 [ms]
[OGL LOG][Proc: 0]: global_index_init: 0.135 [ms]
[OGL LOG][Proc: 0]p_local_coeffs: call_update: 0 [ms]
[OGL LOG][Proc: 0]p_non_local_coeffs: call_update: 0 [ms]
[OGL LOG][Proc: 0]p: update_local_matrix_data: 62.549 [ms]
[OGL LOG][Proc: 0]p: update_non_local_matrix_data: 1.041 [ms]
[OGL LOG][Proc: 0]p: regenerate_distributed_matrix: 183.579 [ms]
[OGL LOG][Proc: 0]p_matrix: call_update: 184.646 [ms]
[OGL LOG][Proc: 0]p_rhs: call_update: 1.83 [ms]
[OGL LOG][Preconditioner.H:121] Generate preconditioner BJ MaxBlockSize 1
[OGL LOG][Proc: 0]p: init_precond: 1.12 [ms]
[OGL LOG][StoppingCriterion.H:239] Creating stopping criterion with minIter 893 frequency 12
[OGL LOG][Proc: 0]p: generate_solver: 0.015 [ms]
[OGL LOG][Proc: 0]p: solve: 895.004 [ms]
[OGL LOG][Proc: 0]p: copy_x_back: 4.986 [ms]
[OGL LOG][lduLduBase.H:330] 
Statistics:
	Time per iteration: 601 [mu s]
	Time per residual norm calculation: 131.000000 [mu s]
	Time per iteration and DOF: 0.075125 [ns]
	Retrieve results bandwidth 3.208000 [GByte/s]
[OGL LOG][Proc: 0]p: solve_multi_gpu: 1089.28 [ms]
BJcudaGKOCG:  Solving for p, Initial residual = 0.433752, Final residual = 9.54498e-05, No Iterations 1489
[INFO] SolveP: 1163.83 [ms]
time step continuity errors : sum local = 5.76314e-09, global = -3.46759e-21, cumulative = -2.35386e-20
[INFO] ContinuityError: 39.127 [ms]
[INFO] CorrectBoundary: 0.412 [ms]
[INFO] PISOStep: 1806.43 [ms]
[INFO] TimeStep: 6797.35 [ms]
ExecutionTime = 122.84 s  ClockTime = 123 s

Time = 0.00275

Courant Number mean: 0.0484126 max: 0.482259
[INFO] MatrixAssemblyU: 325.168 [ms]
DILUPBiCGStab:  Solving for Ux, Initial residual = 0.00963637, Final residual = 0.000193717, No Iterations 5
DILUPBiCGStab:  Solving for Uy, Initial residual = 0.0246777, Final residual = 0.000447349, No Iterations 5
DILUPBiCGStab:  Solving for Uz, Initial residual = 0.105309, Final residual = 0.00375291, No Iterations 5
[INFO] MomentumPredictor: 2703.24 [ms]
[INFO] MatrixAssemblyPI: 377.138 [ms]
[INFO] AdjustPhi: 23.767 [ms]
[INFO] ConstrainPressure: 0.002 [ms]
[INFO] MatrixAssemblyPII: 120.632 [ms]
[OGL LOG][Proc: 0]: global_index_init: 0.048 [ms]
[OGL LOG][Proc: 0]p_local_coeffs: call_update: 0 [ms]
[OGL LOG][Proc: 0]p_non_local_coeffs: call_update: 0 [ms]
[OGL LOG][Proc: 0]p: update_local_matrix_data: 72.862 [ms]
[OGL LOG][Proc: 0]p: update_non_local_matrix_data: 0.999 [ms]
[OGL LOG][Proc: 0]p: regenerate_distributed_matrix: 190.584 [ms]
[OGL LOG][Proc: 0]p_matrix: call_update: 191.555 [ms]
[OGL LOG][Proc: 0]p_rhs: call_update: 4.812 [ms]
[OGL LOG][Preconditioner.H:121] Generate preconditioner BJ MaxBlockSize 1
[OGL LOG][Proc: 0]p: init_precond: 1.165 [ms]
[OGL LOG][StoppingCriterion.H:239] Creating stopping criterion with minIter 893 frequency 12
[OGL LOG][Proc: 0]p: generate_solver: 0.015 [ms]
[OGL LOG][Proc: 0]p: solve: 921.875 [ms]
[OGL LOG][Proc: 0]p: copy_x_back: 4.952 [ms]
[OGL LOG][lduLduBase.H:330] 
Statistics:
	Time per iteration: 619 [mu s]
	Time per residual norm calculation: 132.000000 [mu s]
	Time per iteration and DOF: 0.077375 [ns]
	Retrieve results bandwidth 3.231000 [GByte/s]
[OGL LOG][Proc: 0]p: solve_multi_gpu: 1126.08 [ms]
BJcudaGKOCG:  Solving for p, Initial residual = 0.460953, Final residual = 7.07921e-05, No Iterations 1489
[INFO] SolveP: 1210.53 [ms]
time step continuity errors : sum local = 3.88678e-09, global = -2.47508e-21, cumulative = -2.60137e-20
[INFO] ContinuityError: 39.147 [ms]
[INFO] CorrectBoundary: 0.591 [ms]
[INFO] PISOStep: 1901.64 [ms]
[INFO] MatrixAssemblyPI: 343.145 [ms]
[INFO] AdjustPhi: 17.106 [ms]
[INFO] ConstrainPressure: 0.002 [ms]
[INFO] MatrixAssemblyPII: 111.686 [ms]
[OGL LOG][Proc: 0]: global_index_init: 0.014 [ms]
[OGL LOG][Proc: 0]p_local_coeffs: call_update: 0 [ms]
[OGL LOG][Proc: 0]p_non_local_coeffs: call_update: 0 [ms]
[OGL LOG][Proc: 0]p: update_local_matrix_data: 62.426 [ms]
[OGL LOG][Proc: 0]p: update_non_local_matrix_data: 1.04 [ms]
[OGL LOG][Proc: 0]p: regenerate_distributed_matrix: 183.207 [ms]
[OGL LOG][Proc: 0]p_matrix: call_update: 184.216 [ms]
[OGL LOG][Proc: 0]p_rhs: call_update: 1.794 [ms]
[OGL LOG][Preconditioner.H:121] Generate preconditioner BJ MaxBlockSize 1
[OGL LOG][Proc: 0]p: init_precond: 1.119 [ms]
[OGL LOG][StoppingCriterion.H:239] Creating stopping criterion with minIter 893 frequency 12
[OGL LOG][Proc: 0]p: generate_solver: 0.014 [ms]
[OGL LOG][Proc: 0]p: solve: 889.345 [ms]
[OGL LOG][Proc: 0]p: copy_x_back: 5.077 [ms]
[OGL LOG][lduLduBase.H:330] 
Statistics:
	Time per iteration: 602 [mu s]
	Time per residual norm calculation: 154.000000 [mu s]
	Time per iteration and DOF: 0.075250 [ns]
	Retrieve results bandwidth 3.151000 [GByte/s]
[OGL LOG][Proc: 0]p: solve_multi_gpu: 1083.31 [ms]
BJcudaGKOCG:  Solving for p, Initial residual = 0.407082, Final residual = 9.35729e-05, No Iterations 1477
[INFO] SolveP: 1157.81 [ms]
time step continuity errors : sum local = 5.14418e-09, global = 1.45605e-21, cumulative = -2.45577e-20
[INFO] ContinuityError: 39.404 [ms]
[INFO] CorrectBoundary: 0.406 [ms]
[INFO] PISOStep: 1794.21 [ms]
[INFO] TimeStep: 6764.07 [ms]
ExecutionTime = 129.59 s  ClockTime = 130 s

Time = 0.003

Courant Number mean: 0.050144 max: 0.483045
[INFO] MatrixAssemblyU: 344.792 [ms]
DILUPBiCGStab:  Solving for Ux, Initial residual = 0.0085461, Final residual = 0.000161711, No Iterations 5
DILUPBiCGStab:  Solving for Uy, Initial residual = 0.0220598, Final residual = 0.000365393, No Iterations 5
DILUPBiCGStab:  Solving for Uz, Initial residual = 0.0877279, Final residual = 0.00311505, No Iterations 5
[INFO] MomentumPredictor: 2679.14 [ms]
[INFO] MatrixAssemblyPI: 376.333 [ms]
[INFO] AdjustPhi: 23.413 [ms]
[INFO] ConstrainPressure: 0.002 [ms]
[INFO] MatrixAssemblyPII: 120.831 [ms]
[OGL LOG][Proc: 0]: global_index_init: 0.132 [ms]
[OGL LOG][Proc: 0]p_local_coeffs: call_update: 0 [ms]
[OGL LOG][Proc: 0]p_non_local_coeffs: call_update: 0 [ms]
[OGL LOG][Proc: 0]p: update_local_matrix_data: 72.224 [ms]
[OGL LOG][Proc: 0]p: update_non_local_matrix_data: 1.041 [ms]
[OGL LOG][Proc: 0]p: regenerate_distributed_matrix: 190.292 [ms]
[OGL LOG][Proc: 0]p_matrix: call_update: 191.32 [ms]
[OGL LOG][Proc: 0]p_rhs: call_update: 5.194 [ms]
[OGL LOG][Preconditioner.H:121] Generate preconditioner BJ MaxBlockSize 1
[OGL LOG][Proc: 0]p: init_precond: 1.187 [ms]
[OGL LOG][StoppingCriterion.H:239] Creating stopping criterion with minIter 886 frequency 14
[OGL LOG][Proc: 0]p: generate_solver: 0.014 [ms]
[OGL LOG][Proc: 0]p: solve: 917.737 [ms]
[OGL LOG][Proc: 0]p: copy_x_back: 5.079 [ms]
[OGL LOG][lduLduBase.H:330] 
Statistics:
	Time per iteration: 618 [mu s]
	Time per residual norm calculation: 148.000000 [mu s]
	Time per iteration and DOF: 0.077250 [ns]
	Retrieve results bandwidth 3.150000 [GByte/s]
[OGL LOG][Proc: 0]p: solve_multi_gpu: 1122.23 [ms]
BJcudaGKOCG:  Solving for p, Initial residual = 0.403414, Final residual = 8.31749e-05, No Iterations 1485
[INFO] SolveP: 1206.2 [ms]
time step continuity errors : sum local = 4.4391e-09, global = -1.5739e-21, cumulative = -2.61316e-20
[INFO] ContinuityError: 39.528 [ms]
[INFO] CorrectBoundary: 0.405 [ms]
[INFO] PISOStep: 1896.63 [ms]
[INFO] MatrixAssemblyPI: 344.723 [ms]
[INFO] AdjustPhi: 17.179 [ms]
[INFO] ConstrainPressure: 0.003 [ms]
[INFO] MatrixAssemblyPII: 112.259 [ms]
[OGL LOG][Proc: 0]: global_index_init: 0.013 [ms]
[OGL LOG][Proc: 0]p_local_coeffs: call_update: 0 [ms]
[OGL LOG][Proc: 0]p_non_local_coeffs: call_update: 0 [ms]
[OGL LOG][Proc: 0]p: update_local_matrix_data: 62.511 [ms]
[OGL LOG][Proc: 0]p: update_non_local_matrix_data: 1.01 [ms]
[OGL LOG][Proc: 0]p: regenerate_distributed_matrix: 191.001 [ms]
[OGL LOG][Proc: 0]p_matrix: call_update: 191.994 [ms]
[OGL LOG][Proc: 0]p_rhs: call_update: 1.764 [ms]
[OGL LOG][Preconditioner.H:121] Generate preconditioner BJ MaxBlockSize 1
[OGL LOG][Proc: 0]p: init_precond: 1.137 [ms]
[OGL LOG][StoppingCriterion.H:239] Creating stopping criterion with minIter 891 frequency 12
[OGL LOG][Proc: 0]p: generate_solver: 0.014 [ms]
[OGL LOG][Proc: 0]p: solve: 889.358 [ms]
[OGL LOG][Proc: 0]p: copy_x_back: 4.978 [ms]
[OGL LOG][lduLduBase.H:330] 
Statistics:
	Time per iteration: 602 [mu s]
	Time per residual norm calculation: 137.000000 [mu s]
	Time per iteration and DOF: 0.075250 [ns]
	Retrieve results bandwidth 3.214000 [GByte/s]
[OGL LOG][Proc: 0]p: solve_multi_gpu: 1090.97 [ms]
BJcudaGKOCG:  Solving for p, Initial residual = 0.357502, Final residual = 9.71937e-05, No Iterations 1477
[INFO] SolveP: 1165.63 [ms]
time step continuity errors : sum local = 5.16409e-09, global = -6.63604e-22, cumulative = -2.67952e-20
[INFO] ContinuityError: 38.767 [ms]
[INFO] CorrectBoundary: 0.392 [ms]
[INFO] PISOStep: 1803.12 [ms]
[INFO] TimeStep: 6763.4 [ms]
ExecutionTime = 136.34 s  ClockTime = 137 s

Time = 0.00325

Courant Number mean: 0.051752 max: 0.483612
[INFO] MatrixAssemblyU: 324.053 [ms]
DILUPBiCGStab:  Solving for Ux, Initial residual = 0.00776315, Final residual = 0.000138596, No Iterations 5
DILUPBiCGStab:  Solving for Uy, Initial residual = 0.0193038, Final residual = 0.000273619, No Iterations 5
DILUPBiCGStab:  Solving for Uz, Initial residual = 0.0749054, Final residual = 0.00292583, No Iterations 5
[INFO] MomentumPredictor: 2702.86 [ms]
[INFO] MatrixAssemblyPI: 379.139 [ms]
[INFO] AdjustPhi: 23.738 [ms]
[INFO] ConstrainPressure: 0.002 [ms]
[INFO] MatrixAssemblyPII: 120.649 [ms]
[OGL LOG][Proc: 0]: global_index_init: 0.346 [ms]
[OGL LOG][Proc: 0]p_local_coeffs: call_update: 0 [ms]
[OGL LOG][Proc: 0]p_non_local_coeffs: call_update: 0 [ms]
[OGL LOG][Proc: 0]p: update_local_matrix_data: 72.51 [ms]
[OGL LOG][Proc: 0]p: update_non_local_matrix_data: 1.014 [ms]
[OGL LOG][Proc: 0]p: regenerate_distributed_matrix: 192.531 [ms]
[OGL LOG][Proc: 0]p_matrix: call_update: 193.572 [ms]
[OGL LOG][Proc: 0]p_rhs: call_update: 4.862 [ms]
[OGL LOG][Preconditioner.H:121] Generate preconditioner BJ MaxBlockSize 1
[OGL LOG][Proc: 0]p: init_precond: 1.152 [ms]
[OGL LOG][StoppingCriterion.H:239] Creating stopping criterion with minIter 886 frequency 12
[OGL LOG][Proc: 0]p: generate_solver: 0.017 [ms]
[OGL LOG][Proc: 0]p: solve: 922.088 [ms]
[OGL LOG][Proc: 0]p: copy_x_back: 5.014 [ms]
[OGL LOG][lduLduBase.H:330] 
Statistics:
	Time per iteration: 624 [mu s]
	Time per residual norm calculation: 134.000000 [mu s]
	Time per iteration and DOF: 0.078000 [ns]
	Retrieve results bandwidth 3.191000 [GByte/s]
[OGL LOG][Proc: 0]p: solve_multi_gpu: 1128.43 [ms]
BJcudaGKOCG:  Solving for p, Initial residual = 0.372851, Final residual = 9.12097e-05, No Iterations 1477
[INFO] SolveP: 1212.69 [ms]
time step continuity errors : sum local = 4.56198e-09, global = -5.32241e-22, cumulative = -2.73274e-20
[INFO] ContinuityError: 39.253 [ms]
[INFO] CorrectBoundary: 0.407 [ms]
[INFO] PISOStep: 1906.18 [ms]
[INFO] MatrixAssemblyPI: 345.367 [ms]
[INFO] AdjustPhi: 17.182 [ms]
[INFO] ConstrainPressure: 0.002 [ms]
[INFO] MatrixAssemblyPII: 112 [ms]
[OGL LOG][Proc: 0]: global_index_init: 0.013 [ms]
[OGL LOG][Proc: 0]p_local_coeffs: call_update: 0 [ms]
[OGL LOG][Proc: 0]p_non_local_coeffs: call_update: 0 [ms]
[OGL LOG][Proc: 0]p: update_local_matrix_data: 62.46 [ms]
[OGL LOG][Proc: 0]p: update_non_local_matrix_data: 1.051 [ms]
[OGL LOG][Proc: 0]p: regenerate_distributed_matrix: 191.866 [ms]
[OGL LOG][Proc: 0]p_matrix: call_update: 192.805 [ms]
[OGL LOG][Proc: 0]p_rhs: call_update: 1.739 [ms]
[OGL LOG][Preconditioner.H:121] Generate preconditioner BJ MaxBlockSize 1
[OGL LOG][Proc: 0]p: init_precond: 1.195 [ms]
[OGL LOG][StoppingCriterion.H:239] Creating stopping criterion with minIter 886 frequency 12
[OGL LOG][Proc: 0]p: generate_solver: 0.014 [ms]
[OGL LOG][Proc: 0]p: solve: 890.268 [ms]
[OGL LOG][Proc: 0]p: copy_x_back: 5.161 [ms]
[OGL LOG][lduLduBase.H:330] 
Statistics:
	Time per iteration: 602 [mu s]
	Time per residual norm calculation: 144.000000 [mu s]
	Time per iteration and DOF: 0.075250 [ns]
	Retrieve results bandwidth 3.100000 [GByte/s]
[OGL LOG][Proc: 0]p: solve_multi_gpu: 1092.91 [ms]
BJcudaGKOCG:  Solving for p, Initial residual = 0.327508, Final residual = 8.31147e-05, No Iterations 1477
[INFO] SolveP: 1167.57 [ms]
time step continuity errors : sum local = 4.16341e-09, global = -1.4258e-21, cumulative = -2.87532e-20
[INFO] ContinuityError: 39.017 [ms]
[INFO] CorrectBoundary: 0.42 [ms]
[INFO] PISOStep: 1806.52 [ms]
[INFO] TimeStep: 6779.42 [ms]
ExecutionTime = 143.1 s  ClockTime = 143 s

Time = 0.0035

Courant Number mean: 0.0532453 max: 0.484205
[INFO] MatrixAssemblyU: 346.738 [ms]
DILUPBiCGStab:  Solving for Ux, Initial residual = 0.00702958, Final residual = 0.000118948, No Iterations 5
DILUPBiCGStab:  Solving for Uy, Initial residual = 0.017513, Final residual = 0.000222346, No Iterations 5
DILUPBiCGStab:  Solving for Uz, Initial residual = 0.0644138, Final residual = 0.00248563, No Iterations 5
[INFO] MomentumPredictor: 2684.17 [ms]
[INFO] MatrixAssemblyPI: 375.34 [ms]
[INFO] AdjustPhi: 23.234 [ms]
[INFO] ConstrainPressure: 0.002 [ms]
[INFO] MatrixAssemblyPII: 120.439 [ms]
[OGL LOG][Proc: 0]: global_index_init: 0.313 [ms]
[OGL LOG][Proc: 0]p_local_coeffs: call_update: 0 [ms]
[OGL LOG][Proc: 0]p_non_local_coeffs: call_update: 0 [ms]
[OGL LOG][Proc: 0]p: update_local_matrix_data: 78.876 [ms]
[OGL LOG][Proc: 0]p: update_non_local_matrix_data: 1.01 [ms]
[OGL LOG][Proc: 0]p: regenerate_distributed_matrix: 196.518 [ms]
[OGL LOG][Proc: 0]p_matrix: call_update: 202.441 [ms]
[OGL LOG][Proc: 0]p_rhs: call_update: 4.211 [ms]
[OGL LOG][Preconditioner.H:121] Generate preconditioner BJ MaxBlockSize 1
[OGL LOG][Proc: 0]p: init_precond: 4.456 [ms]
[OGL LOG][StoppingCriterion.H:239] Creating stopping criterion with minIter 886 frequency 12
[OGL LOG][Proc: 0]p: generate_solver: 0.014 [ms]
[OGL LOG][Proc: 0]p: solve: 921.942 [ms]
[OGL LOG][Proc: 0]p: copy_x_back: 5.172 [ms]
[OGL LOG][lduLduBase.H:330] 
Statistics:
	Time per iteration: 645 [mu s]
	Time per residual norm calculation: 130.000000 [mu s]
	Time per iteration and DOF: 0.080625 [ns]
	Retrieve results bandwidth 3.093000 [GByte/s]
[OGL LOG][Proc: 0]p: solve_multi_gpu: 1139.9 [ms]
BJcudaGKOCG:  Solving for p, Initial residual = 0.330949, Final residual = 9.05776e-05, No Iterations 1429
[INFO] SolveP: 1230.66 [ms]
time step continuity errors : sum local = 4.38512e-09, global = -1.96929e-21, cumulative = -3.07225e-20
[INFO] ContinuityError: 39.459 [ms]
[INFO] CorrectBoundary: 0.394 [ms]
[INFO] PISOStep: 1918.23 [ms]
[INFO] MatrixAssemblyPI: 342.583 [ms]
[INFO] AdjustPhi: 17.158 [ms]
[INFO] ConstrainPressure: 0.002 [ms]
[INFO] MatrixAssemblyPII: 112.395 [ms]
[OGL LOG][Proc: 0]: global_index_init: 0.015 [ms]
[OGL LOG][Proc: 0]p_local_coeffs: call_update: 0 [ms]
[OGL LOG][Proc: 0]p_non_local_coeffs: call_update: 0 [ms]
[OGL LOG][Proc: 0]p: update_local_matrix_data: 62.326 [ms]
[OGL LOG][Proc: 0]p: update_non_local_matrix_data: 1.034 [ms]
[OGL LOG][Proc: 0]p: regenerate_distributed_matrix: 191.197 [ms]
[OGL LOG][Proc: 0]p_matrix: call_update: 192.365 [ms]
[OGL LOG][Proc: 0]p_rhs: call_update: 1.786 [ms]
[OGL LOG][Preconditioner.H:121] Generate preconditioner BJ MaxBlockSize 1
[OGL LOG][Proc: 0]p: init_precond: 1.166 [ms]
[OGL LOG][StoppingCriterion.H:239] Creating stopping criterion with minIter 857 frequency 11
[OGL LOG][Proc: 0]p: generate_solver: 0.014 [ms]
[OGL LOG][Proc: 0]p: solve: 890.337 [ms]
[OGL LOG][Proc: 0]p: copy_x_back: 5.999 [ms]
[OGL LOG][lduLduBase.H:330] 
Statistics:
	Time per iteration: 603 [mu s]
	Time per residual norm calculation: 139.000000 [mu s]
	Time per iteration and DOF: 0.075375 [ns]
	Retrieve results bandwidth 2.667000 [GByte/s]
[OGL LOG][Proc: 0]p: solve_multi_gpu: 1093.29 [ms]
BJcudaGKOCG:  Solving for p, Initial residual = 0.292192, Final residual = 8.75883e-05, No Iterations 1475
[INFO] SolveP: 1167.69 [ms]
time step continuity errors : sum local = 4.22355e-09, global = 2.29155e-22, cumulative = -3.04933e-20
[INFO] ContinuityError: 39.899 [ms]
[INFO] CorrectBoundary: 0.506 [ms]
[INFO] PISOStep: 1807.28 [ms]
[INFO] TimeStep: 6798.69 [ms]
ExecutionTime = 149.84 s  ClockTime = 150 s

Time = 0.00375

Courant Number mean: 0.0546444 max: 0.484644
[INFO] MatrixAssemblyU: 324.196 [ms]
DILUPBiCGStab:  Solving for Ux, Initial residual = 0.00645169, Final residual = 0.000103509, No Iterations 5
DILUPBiCGStab:  Solving for Uy, Initial residual = 0.0156938, Final residual = 0.000179664, No Iterations 5
DILUPBiCGStab:  Solving for Uz, Initial residual = 0.0559451, Final residual = 0.00229893, No Iterations 5
[INFO] MomentumPredictor: 2715.83 [ms]
[INFO] MatrixAssemblyPI: 379.299 [ms]
[INFO] AdjustPhi: 23.577 [ms]
[INFO] ConstrainPressure: 0.002 [ms]
[INFO] MatrixAssemblyPII: 120.54 [ms]
[OGL LOG][Proc: 0]: global_index_init: 0.396 [ms]
[OGL LOG][Proc: 0]p_local_coeffs: call_update: 0 [ms]
[OGL LOG][Proc: 0]p_non_local_coeffs: call_update: 0 [ms]
[OGL LOG][Proc: 0]p: update_local_matrix_data: 72.933 [ms]
[OGL LOG][Proc: 0]p: update_non_local_matrix_data: 1.106 [ms]
[OGL LOG][Proc: 0]p: regenerate_distributed_matrix: 191.822 [ms]
[OGL LOG][Proc: 0]p_matrix: call_update: 192.962 [ms]
[OGL LOG][Proc: 0]p_rhs: call_update: 4.985 [ms]
[OGL LOG][Preconditioner.H:121] Generate preconditioner BJ MaxBlockSize 1
[OGL LOG][Proc: 0]p: init_precond: 1.142 [ms]
[OGL LOG][StoppingCriterion.H:239] Creating stopping criterion with minIter 885 frequency 12
[OGL LOG][Proc: 0]p: generate_solver: 0.013 [ms]
[OGL LOG][Proc: 0]p: solve: 584.535 [ms]
[OGL LOG][Proc: 0]p: copy_x_back: 5.03 [ms]
[OGL LOG][lduLduBase.H:330] 
Statistics:
	Time per iteration: 657 [mu s]
	Time per residual norm calculation: 143.000000 [mu s]
	Time per iteration and DOF: 0.082125 [ns]
	Retrieve results bandwidth 3.180000 [GByte/s]
[OGL LOG][Proc: 0]p: solve_multi_gpu: 790.37 [ms]
BJcudaGKOCG:  Solving for p, Initial residual = 0.299322, Final residual = 8.81245e-05, No Iterations 889
[INFO] SolveP: 875.205 [ms]
time step continuity errors : sum local = 4.31835e-09, global = -3.04682e-21, cumulative = -3.35402e-20
[INFO] ContinuityError: 39.503 [ms]
[INFO] CorrectBoundary: 0.397 [ms]
[INFO] PISOStep: 1569.46 [ms]
[INFO] MatrixAssemblyPI: 344.398 [ms]
[INFO] AdjustPhi: 17.104 [ms]
[INFO] ConstrainPressure: 0.002 [ms]
[INFO] MatrixAssemblyPII: 112.082 [ms]
[OGL LOG][Proc: 0]: global_index_init: 0.035 [ms]
[OGL LOG][Proc: 0]p_local_coeffs: call_update: 0 [ms]
[OGL LOG][Proc: 0]p_non_local_coeffs: call_update: 0 [ms]
[OGL LOG][Proc: 0]p: update_local_matrix_data: 62.437 [ms]
[OGL LOG][Proc: 0]p: update_non_local_matrix_data: 1.055 [ms]
[OGL LOG][Proc: 0]p: regenerate_distributed_matrix: 183.243 [ms]
[OGL LOG][Proc: 0]p_matrix: call_update: 184.293 [ms]
[OGL LOG][Proc: 0]p_rhs: call_update: 1.784 [ms]
[OGL LOG][Preconditioner.H:121] Generate preconditioner BJ MaxBlockSize 1
[OGL LOG][Proc: 0]p: init_precond: 1.114 [ms]
[OGL LOG][StoppingCriterion.H:239] Creating stopping criterion with minIter 533 frequency 9
[OGL LOG][Proc: 0]p: generate_solver: 0.014 [ms]
[OGL LOG][Proc: 0]p: solve: 441.624 [ms]
[OGL LOG][Proc: 0]p: copy_x_back: 5.038 [ms]
[OGL LOG][lduLduBase.H:330] 
Statistics:
	Time per iteration: 653 [mu s]
	Time per residual norm calculation: 131.000000 [mu s]
	Time per iteration and DOF: 0.081625 [ns]
	Retrieve results bandwidth 3.175000 [GByte/s]
[OGL LOG][Proc: 0]p: solve_multi_gpu: 635.522 [ms]
BJcudaGKOCG:  Solving for p, Initial residual = 0.262108, Final residual = 9.64575e-05, No Iterations 676
[INFO] SolveP: 710.052 [ms]
time step continuity errors : sum local = 4.57289e-09, global = -3.32456e-21, cumulative = -3.68647e-20
[INFO] ContinuityError: 39.27 [ms]
[INFO] CorrectBoundary: 0.419 [ms]
[INFO] PISOStep: 1351.64 [ms]
[INFO] TimeStep: 6001.29 [ms]
ExecutionTime = 155.82 s  ClockTime = 156 s

Time = 0.004

Courant Number mean: 0.0559556 max: 0.485107
[INFO] MatrixAssemblyU: 354.63 [ms]
DILUPBiCGStab:  Solving for Ux, Initial residual = 0.00593212, Final residual = 9.06913e-05, No Iterations 5
DILUPBiCGStab:  Solving for Uy, Initial residual = 0.0144058, Final residual = 0.000146721, No Iterations 5
DILUPBiCGStab:  Solving for Uz, Initial residual = 0.0491606, Final residual = 0.00196138, No Iterations 5
[INFO] MomentumPredictor: 2680.55 [ms]
[INFO] MatrixAssemblyPI: 375.804 [ms]
[INFO] AdjustPhi: 23.256 [ms]
[INFO] ConstrainPressure: 0.003 [ms]
[INFO] MatrixAssemblyPII: 121.164 [ms]
[OGL LOG][Proc: 0]: global_index_init: 0.014 [ms]
[OGL LOG][Proc: 0]p_local_coeffs: call_update: 0 [ms]
[OGL LOG][Proc: 0]p_non_local_coeffs: call_update: 0 [ms]
[OGL LOG][Proc: 0]p: update_local_matrix_data: 73.421 [ms]
[OGL LOG][Proc: 0]p: update_non_local_matrix_data: 1.047 [ms]
[OGL LOG][Proc: 0]p: regenerate_distributed_matrix: 191.684 [ms]
[OGL LOG][Proc: 0]p_matrix: call_update: 192.724 [ms]
[OGL LOG][Proc: 0]p_rhs: call_update: 5.064 [ms]
[OGL LOG][Preconditioner.H:121] Generate preconditioner BJ MaxBlockSize 1
[OGL LOG][Proc: 0]p: init_precond: 1.2 [ms]
[OGL LOG][StoppingCriterion.H:239] Creating stopping criterion with minIter 405 frequency 8
[OGL LOG][Proc: 0]p: generate_solver: 0.014 [ms]
[OGL LOG][Proc: 0]p: solve: 499.56 [ms]
[OGL LOG][Proc: 0]p: copy_x_back: 4.986 [ms]
[OGL LOG][lduLduBase.H:330] 
Statistics:
	Time per iteration: 685 [mu s]
	Time per residual norm calculation: 136.000000 [mu s]
	Time per iteration and DOF: 0.085625 [ns]
	Retrieve results bandwidth 3.208000 [GByte/s]
[OGL LOG][Proc: 0]p: solve_multi_gpu: 705.27 [ms]
BJcudaGKOCG:  Solving for p, Initial residual = 0.268923, Final residual = 9.29101e-05, No Iterations 729
[INFO] SolveP: 790.371 [ms]
time step continuity errors : sum local = 4.70002e-09, global = -4.45799e-22, cumulative = -3.73105e-20
[INFO] ContinuityError: 39.374 [ms]
[INFO] CorrectBoundary: 0.384 [ms]
[INFO] PISOStep: 1479.8 [ms]
[INFO] MatrixAssemblyPI: 345.109 [ms]
[INFO] AdjustPhi: 17.268 [ms]
[INFO] ConstrainPressure: 0.002 [ms]
[INFO] MatrixAssemblyPII: 111.834 [ms]
[OGL LOG][Proc: 0]: global_index_init: 0.014 [ms]
[OGL LOG][Proc: 0]p_local_coeffs: call_update: 0 [ms]
[OGL LOG][Proc: 0]p_non_local_coeffs: call_update: 0 [ms]
[OGL LOG][Proc: 0]p: update_local_matrix_data: 62.339 [ms]
[OGL LOG][Proc: 0]p: update_non_local_matrix_data: 0.995 [ms]
[OGL LOG][Proc: 0]p: regenerate_distributed_matrix: 190.469 [ms]
[OGL LOG][Proc: 0]p_matrix: call_update: 191.408 [ms]
[OGL LOG][Proc: 0]p_rhs: call_update: 1.803 [ms]
[OGL LOG][Preconditioner.H:121] Generate preconditioner BJ MaxBlockSize 1
[OGL LOG][Proc: 0]p: init_precond: 1.148 [ms]
[OGL LOG][StoppingCriterion.H:239] Creating stopping criterion with minIter 437 frequency 7
[OGL LOG][Proc: 0]p: generate_solver: 0.014 [ms]
[OGL LOG][Proc: 0]p: solve: 457.821 [ms]
[OGL LOG][Proc: 0]p: copy_x_back: 4.944 [ms]
[OGL LOG][lduLduBase.H:330] 
Statistics:
	Time per iteration: 653 [mu s]
	Time per residual norm calculation: 132.000000 [mu s]
	Time per iteration and DOF: 0.081625 [ns]
	Retrieve results bandwidth 3.236000 [GByte/s]
[OGL LOG][Proc: 0]p: solve_multi_gpu: 658.86 [ms]
BJcudaGKOCG:  Solving for p, Initial residual = 0.236512, Final residual = 9.653e-05, No Iterations 701
[INFO] SolveP: 733.264 [ms]
time step continuity errors : sum local = 4.47146e-09, global = -4.17998e-22, cumulative = -3.77285e-20
[INFO] ContinuityError: 38.864 [ms]
[INFO] CorrectBoundary: 0.395 [ms]
[INFO] PISOStep: 1370.74 [ms]
[INFO] TimeStep: 5926.59 [ms]
ExecutionTime = 161.73 s  ClockTime = 162 s

Time = 0.00425

Courant Number mean: 0.0571912 max: 0.485464
[INFO] MatrixAssemblyU: 324.141 [ms]
DILUPBiCGStab:  Solving for Ux, Initial residual = 0.00548431, Final residual = 7.97318e-05, No Iterations 5
DILUPBiCGStab:  Solving for Uy, Initial residual = 0.0131623, Final residual = 0.000126257, No Iterations 5
DILUPBiCGStab:  Solving for Uz, Initial residual = 0.044182, Final residual = 0.00181296, No Iterations 5
[INFO] MomentumPredictor: 2703.52 [ms]
[INFO] MatrixAssemblyPI: 379.941 [ms]
[INFO] AdjustPhi: 23.682 [ms]
[INFO] ConstrainPressure: 0.002 [ms]
[INFO] MatrixAssemblyPII: 121.181 [ms]
[OGL LOG][Proc: 0]: global_index_init: 0.358 [ms]
[OGL LOG][Proc: 0]p_local_coeffs: call_update: 0 [ms]
[OGL LOG][Proc: 0]p_non_local_coeffs: call_update: 0 [ms]
[OGL LOG][Proc: 0]p: update_local_matrix_data: 72.944 [ms]
[OGL LOG][Proc: 0]p: update_non_local_matrix_data: 0.986 [ms]
[OGL LOG][Proc: 0]p: regenerate_distributed_matrix: 190.46 [ms]
[OGL LOG][Proc: 0]p_matrix: call_update: 191.406 [ms]
[OGL LOG][Proc: 0]p_rhs: call_update: 4.676 [ms]
[OGL LOG][Preconditioner.H:121] Generate preconditioner BJ MaxBlockSize 1
[OGL LOG][Proc: 0]p: init_precond: 1.168 [ms]
[OGL LOG][StoppingCriterion.H:239] Creating stopping criterion with minIter 420 frequency 8
[OGL LOG][Proc: 0]p: generate_solver: 0.014 [ms]
[OGL LOG][Proc: 0]p: solve: 922.596 [ms]
[OGL LOG][Proc: 0]p: copy_x_back: 4.959 [ms]
[OGL LOG][lduLduBase.H:330] 
Statistics:
	Time per iteration: 626 [mu s]
	Time per residual norm calculation: 140.000000 [mu s]
	Time per iteration and DOF: 0.078250 [ns]
	Retrieve results bandwidth 3.226000 [GByte/s]
[OGL LOG][Proc: 0]p: solve_multi_gpu: 1126.46 [ms]
BJcudaGKOCG:  Solving for p, Initial residual = 0.240234, Final residual = 8.53495e-05, No Iterations 1473
[INFO] SolveP: 1211.19 [ms]
time step continuity errors : sum local = 3.75989e-09, global = -1.59754e-21, cumulative = -3.93261e-20
[INFO] ContinuityError: 39.086 [ms]
[INFO] CorrectBoundary: 0.426 [ms]
[INFO] PISOStep: 1905.32 [ms]
[INFO] MatrixAssemblyPI: 344.002 [ms]
[INFO] AdjustPhi: 17.207 [ms]
[INFO] ConstrainPressure: 0.002 [ms]
[INFO] MatrixAssemblyPII: 111.873 [ms]
[OGL LOG][Proc: 0]: global_index_init: 0.013 [ms]
[OGL LOG][Proc: 0]p_local_coeffs: call_update: 0 [ms]
[OGL LOG][Proc: 0]p_non_local_coeffs: call_update: 0 [ms]
[OGL LOG][Proc: 0]p: update_local_matrix_data: 62.331 [ms]
[OGL LOG][Proc: 0]p: update_non_local_matrix_data: 1.013 [ms]
[OGL LOG][Proc: 0]p: regenerate_distributed_matrix: 183.67 [ms]
[OGL LOG][Proc: 0]p_matrix: call_update: 184.7 [ms]
[OGL LOG][Proc: 0]p_rhs: call_update: 1.818 [ms]
[OGL LOG][Preconditioner.H:121] Generate preconditioner BJ MaxBlockSize 1
[OGL LOG][Proc: 0]p: init_precond: 1.122 [ms]
[OGL LOG][StoppingCriterion.H:239] Creating stopping criterion with minIter 883 frequency 12
[OGL LOG][Proc: 0]p: generate_solver: 0.015 [ms]
[OGL LOG][Proc: 0]p: solve: 888.656 [ms]
[OGL LOG][Proc: 0]p: copy_x_back: 5.145 [ms]
[OGL LOG][lduLduBase.H:330] 
Statistics:
	Time per iteration: 601 [mu s]
	Time per residual norm calculation: 142.000000 [mu s]
	Time per iteration and DOF: 0.075125 [ns]
	Retrieve results bandwidth 3.109000 [GByte/s]
[OGL LOG][Proc: 0]p: solve_multi_gpu: 1083.16 [ms]
BJcudaGKOCG:  Solving for p, Initial residual = 0.209639, Final residual = 6.64374e-05, No Iterations 1477
[INFO] SolveP: 1157.47 [ms]
time step continuity errors : sum local = 2.92991e-09, global = -2.92313e-21, cumulative = -4.22492e-20
[INFO] ContinuityError: 39.306 [ms]
[INFO] CorrectBoundary: 0.404 [ms]
[INFO] PISOStep: 1798.77 [ms]
[INFO] TimeStep: 6771.47 [ms]
ExecutionTime = 168.49 s  ClockTime = 169 s

Time = 0.0045

Courant Number mean: 0.0583577 max: 0.485835
[INFO] MatrixAssemblyU: 346.416 [ms]
DILUPBiCGStab:  Solving for Ux, Initial residual = 0.00510181, Final residual = 7.0897e-05, No Iterations 5
DILUPBiCGStab:  Solving for Uy, Initial residual = 0.0121939, Final residual = 0.000105126, No Iterations 5
DILUPBiCGStab:  Solving for Uz, Initial residual = 0.0395961, Final residual = 0.00152844, No Iterations 5
[INFO] MomentumPredictor: 2686.29 [ms]
[INFO] MatrixAssemblyPI: 375.578 [ms]
[INFO] AdjustPhi: 23.174 [ms]
[INFO] ConstrainPressure: 0.002 [ms]
[INFO] MatrixAssemblyPII: 121.443 [ms]
[OGL LOG][Proc: 0]: global_index_init: 0.081 [ms]
[OGL LOG][Proc: 0]p_local_coeffs: call_update: 0 [ms]
[OGL LOG][Proc: 0]p_non_local_coeffs: call_update: 0 [ms]
[OGL LOG][Proc: 0]p: update_local_matrix_data: 72.471 [ms]
[OGL LOG][Proc: 0]p: update_non_local_matrix_data: 1.019 [ms]
[OGL LOG][Proc: 0]p: regenerate_distributed_matrix: 190.246 [ms]
[OGL LOG][Proc: 0]p_matrix: call_update: 191.34 [ms]
[OGL LOG][Proc: 0]p_rhs: call_update: 4.99 [ms]
[OGL LOG][Preconditioner.H:121] Generate preconditioner BJ MaxBlockSize 1
[OGL LOG][Proc: 0]p: init_precond: 1.133 [ms]
[OGL LOG][StoppingCriterion.H:239] Creating stopping criterion with minIter 886 frequency 12
[OGL LOG][Proc: 0]p: generate_solver: 0.015 [ms]
[OGL LOG][Proc: 0]p: solve: 914.412 [ms]
[OGL LOG][Proc: 0]p: copy_x_back: 5.046 [ms]
[OGL LOG][lduLduBase.H:330] 
Statistics:
	Time per iteration: 619 [mu s]
	Time per residual norm calculation: 131.000000 [mu s]
	Time per iteration and DOF: 0.077375 [ns]
	Retrieve results bandwidth 3.170000 [GByte/s]
[OGL LOG][Proc: 0]p: solve_multi_gpu: 1118.65 [ms]
BJcudaGKOCG:  Solving for p, Initial residual = 0.217244, Final residual = 6.75185e-05, No Iterations 1477
[INFO] SolveP: 1202.71 [ms]
time step continuity errors : sum local = 2.86643e-09, global = -1.27735e-21, cumulative = -4.35265e-20
[INFO] ContinuityError: 40.396 [ms]
[INFO] CorrectBoundary: 0.392 [ms]
[INFO] PISOStep: 1893.02 [ms]
[INFO] MatrixAssemblyPI: 345.082 [ms]
[INFO] AdjustPhi: 17.228 [ms]
[INFO] ConstrainPressure: 0.002 [ms]
[INFO] MatrixAssemblyPII: 112.014 [ms]
[OGL LOG][Proc: 0]: global_index_init: 0.019 [ms]
[OGL LOG][Proc: 0]p_local_coeffs: call_update: 0 [ms]
[OGL LOG][Proc: 0]p_non_local_coeffs: call_update: 0 [ms]
[OGL LOG][Proc: 0]p: update_local_matrix_data: 62.242 [ms]
[OGL LOG][Proc: 0]p: update_non_local_matrix_data: 0.991 [ms]
[OGL LOG][Proc: 0]p: regenerate_distributed_matrix: 183.238 [ms]
[OGL LOG][Proc: 0]p_matrix: call_update: 184.354 [ms]
[OGL LOG][Proc: 0]p_rhs: call_update: 1.813 [ms]
[OGL LOG][Preconditioner.H:121] Generate preconditioner BJ MaxBlockSize 1
[OGL LOG][Proc: 0]p: init_precond: 1.103 [ms]
[OGL LOG][StoppingCriterion.H:239] Creating stopping criterion with minIter 886 frequency 12
[OGL LOG][Proc: 0]p: generate_solver: 0.013 [ms]
[OGL LOG][Proc: 0]p: solve: 883.169 [ms]
[OGL LOG][Proc: 0]p: copy_x_back: 4.993 [ms]
[OGL LOG][lduLduBase.H:330] 
Statistics:
	Time per iteration: 602 [mu s]
	Time per residual norm calculation: 131.000000 [mu s]
	Time per iteration and DOF: 0.075250 [ns]
	Retrieve results bandwidth 3.204000 [GByte/s]
[OGL LOG][Proc: 0]p: solve_multi_gpu: 1077.6 [ms]
BJcudaGKOCG:  Solving for p, Initial residual = 0.190334, Final residual = 9.57713e-05, No Iterations 1465
[INFO] SolveP: 1151.88 [ms]
time step continuity errors : sum local = 4.05638e-09, global = -6.86398e-22, cumulative = -4.42129e-20
[INFO] ContinuityError: 39.035 [ms]
[INFO] CorrectBoundary: 0.426 [ms]
[INFO] PISOStep: 1789.57 [ms]
[INFO] TimeStep: 6756.08 [ms]
ExecutionTime = 175.23 s  ClockTime = 176 s

Time = 0.00475

Courant Number mean: 0.0594621 max: 0.486132
[INFO] MatrixAssemblyU: 323.387 [ms]
DILUPBiCGStab:  Solving for Ux, Initial residual = 0.00475411, Final residual = 6.27905e-05, No Iterations 5
DILUPBiCGStab:  Solving for Uy, Initial residual = 0.0112421, Final residual = 9.43125e-05, No Iterations 5
DILUPBiCGStab:  Solving for Uz, Initial residual = 0.0346244, Final residual = 0.00132437, No Iterations 5
[INFO] MomentumPredictor: 2704.05 [ms]
[INFO] MatrixAssemblyPI: 378.006 [ms]
[INFO] AdjustPhi: 23.792 [ms]
[INFO] ConstrainPressure: 0.002 [ms]
[INFO] MatrixAssemblyPII: 120.628 [ms]
[OGL LOG][Proc: 0]: global_index_init: 0.119 [ms]
[OGL LOG][Proc: 0]p_local_coeffs: call_update: 0 [ms]
[OGL LOG][Proc: 0]p_non_local_coeffs: call_update: 0 [ms]
[OGL LOG][Proc: 0]p: update_local_matrix_data: 72.713 [ms]
[OGL LOG][Proc: 0]p: update_non_local_matrix_data: 1.059 [ms]
[OGL LOG][Proc: 0]p: regenerate_distributed_matrix: 190.618 [ms]
[OGL LOG][Proc: 0]p_matrix: call_update: 191.614 [ms]
[OGL LOG][Proc: 0]p_rhs: call_update: 4.691 [ms]
[OGL LOG][Preconditioner.H:121] Generate preconditioner BJ MaxBlockSize 1
[OGL LOG][Proc: 0]p: init_precond: 1.159 [ms]
[OGL LOG][StoppingCriterion.H:239] Creating stopping criterion with minIter 879 frequency 12
[OGL LOG][Proc: 0]p: generate_solver: 0.014 [ms]
[OGL LOG][Proc: 0]p: solve: 908.415 [ms]
[OGL LOG][Proc: 0]p: copy_x_back: 5.024 [ms]
[OGL LOG][lduLduBase.H:330] 
Statistics:
	Time per iteration: 620 [mu s]
	Time per residual norm calculation: 133.000000 [mu s]
	Time per iteration and DOF: 0.077500 [ns]
	Retrieve results bandwidth 3.184000 [GByte/s]
[OGL LOG][Proc: 0]p: solve_multi_gpu: 1112.57 [ms]
BJcudaGKOCG:  Solving for p, Initial residual = 0.192841, Final residual = 8.45799e-05, No Iterations 1465
[INFO] SolveP: 1197.08 [ms]
time step continuity errors : sum local = 3.56525e-09, global = -1.4427e-21, cumulative = -4.56556e-20
[INFO] ContinuityError: 39.249 [ms]
[INFO] CorrectBoundary: 0.418 [ms]
[INFO] PISOStep: 1888.96 [ms]
[INFO] MatrixAssemblyPI: 344.276 [ms]
[INFO] AdjustPhi: 17.147 [ms]
[INFO] ConstrainPressure: 0.002 [ms]
[INFO] MatrixAssemblyPII: 111.962 [ms]
[OGL LOG][Proc: 0]: global_index_init: 0.012 [ms]
[OGL LOG][Proc: 0]p_local_coeffs: call_update: 0 [ms]
[OGL LOG][Proc: 0]p_non_local_coeffs: call_update: 0 [ms]
[OGL LOG][Proc: 0]p: update_local_matrix_data: 62.352 [ms]
[OGL LOG][Proc: 0]p: update_non_local_matrix_data: 1.016 [ms]
[OGL LOG][Proc: 0]p: regenerate_distributed_matrix: 183.162 [ms]
[OGL LOG][Proc: 0]p_matrix: call_update: 184.193 [ms]
[OGL LOG][Proc: 0]p_rhs: call_update: 1.823 [ms]
[OGL LOG][Preconditioner.H:121] Generate preconditioner BJ MaxBlockSize 1
[OGL LOG][Proc: 0]p: init_precond: 1.106 [ms]
[OGL LOG][StoppingCriterion.H:239] Creating stopping criterion with minIter 879 frequency 12
[OGL LOG][Proc: 0]p: generate_solver: 0.014 [ms]
[OGL LOG][Proc: 0]p: solve: 882.031 [ms]
[OGL LOG][Proc: 0]p: copy_x_back: 5.004 [ms]
[OGL LOG][lduLduBase.H:330] 
Statistics:
	Time per iteration: 602 [mu s]
	Time per residual norm calculation: 140.000000 [mu s]
	Time per iteration and DOF: 0.075250 [ns]
	Retrieve results bandwidth 3.197000 [GByte/s]
[OGL LOG][Proc: 0]p: solve_multi_gpu: 1075.85 [ms]
BJcudaGKOCG:  Solving for p, Initial residual = 0.16801, Final residual = 7.67349e-05, No Iterations 1465
[INFO] SolveP: 1150.18 [ms]
time step continuity errors : sum local = 3.23651e-09, global = -5.9376e-22, cumulative = -4.62494e-20
[INFO] ContinuityError: 39.627 [ms]
[INFO] CorrectBoundary: 0.51 [ms]
[INFO] PISOStep: 1787.11 [ms]
[INFO] TimeStep: 6743.35 [ms]
ExecutionTime = 181.96 s  ClockTime = 182 s

Time = 0.005

Courant Number mean: 0.06051 max: 0.486437
[INFO] MatrixAssemblyU: 346.002 [ms]
DILUPBiCGStab:  Solving for Ux, Initial residual = 0.00445054, Final residual = 5.62968e-05, No Iterations 5
DILUPBiCGStab:  Solving for Uy, Initial residual = 0.0105098, Final residual = 8.00363e-05, No Iterations 5
DILUPBiCGStab:  Solving for Uz, Initial residual = 0.0314676, Final residual = 0.00113324, No Iterations 5
[INFO] MomentumPredictor: 2684.99 [ms]
[INFO] MatrixAssemblyPI: 376.594 [ms]
[INFO] AdjustPhi: 23.867 [ms]
[INFO] ConstrainPressure: 0.002 [ms]
[INFO] MatrixAssemblyPII: 120.674 [ms]
[OGL LOG][Proc: 0]: global_index_init: 0.035 [ms]
[OGL LOG][Proc: 0]p_local_coeffs: call_update: 0 [ms]
[OGL LOG][Proc: 0]p_non_local_coeffs: call_update: 0 [ms]
[OGL LOG][Proc: 0]p: update_local_matrix_data: 72.481 [ms]
[OGL LOG][Proc: 0]p: update_non_local_matrix_data: 1.018 [ms]
[OGL LOG][Proc: 0]p: regenerate_distributed_matrix: 190.631 [ms]
[OGL LOG][Proc: 0]p_matrix: call_update: 191.662 [ms]
[OGL LOG][Proc: 0]p_rhs: call_update: 4.9 [ms]
[OGL LOG][Preconditioner.H:121] Generate preconditioner BJ MaxBlockSize 1
[OGL LOG][Proc: 0]p: init_precond: 1.13 [ms]
[OGL LOG][StoppingCriterion.H:239] Creating stopping criterion with minIter 879 frequency 12
[OGL LOG][Proc: 0]p: generate_solver: 0.018 [ms]
[OGL LOG][Proc: 0]p: solve: 906.67 [ms]
[OGL LOG][Proc: 0]p: copy_x_back: 5.039 [ms]
[OGL LOG][lduLduBase.H:330] 
Statistics:
	Time per iteration: 618 [mu s]
	Time per residual norm calculation: 131.000000 [mu s]
	Time per iteration and DOF: 0.077250 [ns]
	Retrieve results bandwidth 3.175000 [GByte/s]
[OGL LOG][Proc: 0]p: solve_multi_gpu: 1111.12 [ms]
BJcudaGKOCG:  Solving for p, Initial residual = 0.174604, Final residual = 7.90549e-05, No Iterations 1465
[INFO] SolveP: 1195.28 [ms]
time step continuity errors : sum local = 3.21926e-09, global = -5.14958e-21, cumulative = -5.1399e-20
[INFO] ContinuityError: 39.425 [ms]
[INFO] CorrectBoundary: 0.592 [ms]
[INFO] PISOStep: 1885.21 [ms]
[INFO] MatrixAssemblyPI: 345.473 [ms]
[INFO] AdjustPhi: 17.073 [ms]
[INFO] ConstrainPressure: 0.003 [ms]
[INFO] MatrixAssemblyPII: 112.047 [ms]
[OGL LOG][Proc: 0]: global_index_init: 0.012 [ms]
[OGL LOG][Proc: 0]p_local_coeffs: call_update: 0 [ms]
[OGL LOG][Proc: 0]p_non_local_coeffs: call_update: 0 [ms]
[OGL LOG][Proc: 0]p: update_local_matrix_data: 62.426 [ms]
[OGL LOG][Proc: 0]p: update_non_local_matrix_data: 1.036 [ms]
[OGL LOG][Proc: 0]p: regenerate_distributed_matrix: 183.247 [ms]
[OGL LOG][Proc: 0]p_matrix: call_update: 184.271 [ms]
[OGL LOG][Proc: 0]p_rhs: call_update: 1.806 [ms]
[OGL LOG][Preconditioner.H:121] Generate preconditioner BJ MaxBlockSize 1
[OGL LOG][Proc: 0]p: init_precond: 1.115 [ms]
[OGL LOG][StoppingCriterion.H:239] Creating stopping criterion with minIter 879 frequency 12
[OGL LOG][Proc: 0]p: generate_solver: 0.015 [ms]
[OGL LOG][Proc: 0]p: solve: 880.882 [ms]
[OGL LOG][Proc: 0]p: copy_x_back: 4.998 [ms]
[OGL LOG][lduLduBase.H:330] 
Statistics:
	Time per iteration: 601 [mu s]
	Time per residual norm calculation: 135.000000 [mu s]
	Time per iteration and DOF: 0.075125 [ns]
	Retrieve results bandwidth 3.201000 [GByte/s]
[OGL LOG][Proc: 0]p: solve_multi_gpu: 1074.79 [ms]
BJcudaGKOCG:  Solving for p, Initial residual = 0.152658, Final residual = 7.06314e-05, No Iterations 1465
[INFO] SolveP: 1149.26 [ms]
time step continuity errors : sum local = 2.87147e-09, global = -2.2821e-21, cumulative = -5.36811e-20
[INFO] ContinuityError: 39.035 [ms]
[INFO] CorrectBoundary: 0.4 [ms]
[INFO] PISOStep: 1786.9 [ms]
[INFO] TimeStep: 6742.84 [ms]
ExecutionTime = 188.68 s  ClockTime = 189 s

End

Finalising parallel run
