/*---------------------------------------------------------------------------*\
| =========                 |                                                 |
| \\      /  F ield         | OpenFOAM: The Open Source CFD Toolbox           |
|  \\    /   O peration     | Version:  2306                                  |
|   \\  /    A nd           | Website:  www.openfoam.com                      |
|    \\/     M anipulation  |                                                 |
\*---------------------------------------------------------------------------*/
Build  : c423ebec-20231012 OPENFOAM=2306 version=v2306
Arch   : "LSB;label=32;scalar=64"
Exec   : simpleFoam -parallel -case /hkfs/work/workspace/scratch/eq4036-windsorbody_setup/workspace/a396041e495b1d83575097fa09815da3/case
Date   : Feb 16 2024
Time   : 14:54:09
Host   : hkn0606.localdomain
PID    : 470605
I/O    : uncollated
Case   : /hkfs/work/workspace/scratch/eq4036-windsorbody_setup/workspace/a396041e495b1d83575097fa09815da3/case
nProcs : 8
Hosts  :
(
    (hkn0606.localdomain 8)
)
Pstream initialized with:
    floatTransfer      : false
    nProcsSimpleSum    : 0
    nonBlockingExchange: 0 (tuning: 0)
    exchange algorithm : -1
    commsType          : nonBlocking
    polling iterations : 0
trapFpe: Floating point exception trapping enabled (FOAM_SIGFPE).
fileModificationChecking : Monitoring run-time modified files using timeStampMaster (fileModificationSkew 5, maxFileModificationPolls 20)
allowSystemOperations : Allowing user-supplied system call operations

// * * * * * * * * * * * * * * * * * * * * * * * * * * * * * * * * * * * * * //
Create time

--> FOAM Warning : 
    From void* Foam::dlLibraryTable::openLibrary(const Foam::fileName&, bool)
    in file db/dynamicLibrary/dlLibraryTable/dlLibraryTable.C at line 188
    Could not load "libpetscFoam.so"
libpetscFoam.so: cannot open shared object file: No such file or directory
Create mesh for time = 0


SIMPLE: convergence criteria
    field p	 tolerance 1e-08
    field U	 tolerance 1e-08
    field k	 tolerance 1e-08
    field omega	 tolerance 1e-08
    field nuTilda	 tolerance 1e-08

Reading field p

Reading field U

Reading/calculating face flux field phi

Selecting incompressible transport model Newtonian
Selecting turbulence model type RAS
Selecting RAS turbulence model SpalartAllmaras
Selecting patchDistMethod meshWave
ft2 term: inactive
RAS
{
    RASModel        SpalartAllmaras;
    turbulence      on;
    printCoeffs     on;
    sigmaNut        0.66666;
    kappa           0.41;
    Cb1             0.1355;
    Cb2             0.622;
    Cw2             0.3;
    Cw3             2;
    Cv1             7.1;
    Cs              0.3;
    ck              0.07000000000000001;
    ft2             false;
    Ct3             1.2;
    Ct4             0.5;
}

No MRF models present

Creating finite volume options from "system/fvOptions"

Selecting finite volume options type velocityDampingConstraint
    Source: velocityDamping
    - selecting all cells
    - selected 25228544 cell(s) with volume 111.3033220638994

Starting time loop

--> FOAM Warning : 
    From bool Foam::functionObjectList::read()
    in file db/functionObjects/functionObjectList/functionObjectList.C at line 1035
    Reading "system/controlDict" at line 2 to 41
    Entry 'lref' is not a dictionary
--> FOAM Warning : 
    From bool Foam::functionObjectList::read()
    in file db/functionObjects/functionObjectList/functionObjectList.C at line 1035
    Reading "system/controlDict" at line 2 to 41
    Entry 'Aref' is not a dictionary
--> FOAM Warning : 
    From bool Foam::functionObjectList::read()
    in file db/functionObjects/functionObjectList/functionObjectList.C at line 1035
    Reading "system/controlDict" at line 2 to 41
    Entry 'yawAngle' is not a dictionary
--> FOAM Warning : 
    From bool Foam::functionObjectList::read()
    in file db/functionObjects/functionObjectList/functionObjectList.C at line 1035
    Reading "system/controlDict" at line 2 to 41
    Entry 'lDomain' is not a dictionary
--> FOAM Warning : 
    From bool Foam::functionObjectList::read()
    in file db/functionObjects/functionObjectList/functionObjectList.C at line 1035
    Reading "system/controlDict" at line 2 to 41
    Entry 'bDomain' is not a dictionary
--> FOAM Warning : 
    From bool Foam::functionObjectList::read()
    in file db/functionObjects/functionObjectList/functionObjectList.C at line 1035
    Reading "system/controlDict" at line 2 to 41
    Entry 'hDomain' is not a dictionary
--> FOAM Warning : 
    From bool Foam::functionObjectList::read()
    in file db/functionObjects/functionObjectList/functionObjectList.C at line 1035
    Reading "system/controlDict" at line 2 to 41
    Entry 'xCenter' is not a dictionary
--> FOAM Warning : 
    From bool Foam::functionObjectList::read()
    in file db/functionObjects/functionObjectList/functionObjectList.C at line 1035
    Reading "system/controlDict" at line 2 to 41
    Entry 'yCenter' is not a dictionary
--> FOAM Warning : 
    From bool Foam::functionObjectList::read()
    in file db/functionObjects/functionObjectList/functionObjectList.C at line 1035
    Reading "system/controlDict" at line 2 to 41
    Entry 'zCenter' is not a dictionary
--> FOAM Warning : 
    From bool Foam::functionObjectList::read()
    in file db/functionObjects/functionObjectList/functionObjectList.C at line 1035
    Reading "system/controlDict" at line 2 to 41
    Entry 'inletPatch' is not a dictionary
--> FOAM Warning : 
    From bool Foam::functionObjectList::read()
    in file db/functionObjects/functionObjectList/functionObjectList.C at line 1035
    Reading "system/controlDict" at line 2 to 41
    Entry 'outletPatch' is not a dictionary
--> FOAM Warning : 
    From bool Foam::functionObjectList::read()
    in file db/functionObjects/functionObjectList/functionObjectList.C at line 1035
    Reading "system/controlDict" at line 2 to 41
    Entry 'wallPatches' is not a dictionary
--> FOAM Warning : 
    From bool Foam::functionObjectList::read()
    in file db/functionObjects/functionObjectList/functionObjectList.C at line 1035
    Reading "system/controlDict" at line 2 to 41
    Entry 'forcesWallPatches' is not a dictionary
--> FOAM Warning : 
    From bool Foam::functionObjectList::read()
    in file db/functionObjects/functionObjectList/functionObjectList.C at line 1035
    Reading "system/controlDict" at line 2 to 41
    Entry 'symmPatches' is not a dictionary
--> FOAM Warning : 
    From bool Foam::functionObjectList::read()
    in file db/functionObjects/functionObjectList/functionObjectList.C at line 1035
    Reading "system/controlDict" at line 2 to 41
    Entry 'Uinf' is not a dictionary
--> FOAM Warning : 
    From bool Foam::functionObjectList::read()
    in file db/functionObjects/functionObjectList/functionObjectList.C at line 1035
    Reading "system/controlDict" at line 2 to 41
    Entry 'UinfMag' is not a dictionary
--> FOAM Warning : 
    From bool Foam::functionObjectList::read()
    in file db/functionObjects/functionObjectList/functionObjectList.C at line 1035
    Reading "system/controlDict" at line 2 to 41
    Entry 'nu' is not a dictionary
--> FOAM Warning : 
    From bool Foam::functionObjectList::read()
    in file db/functionObjects/functionObjectList/functionObjectList.C at line 1035
    Reading "system/controlDict" at line 2 to 41
    Entry 'pref' is not a dictionary
--> FOAM Warning : 
    From bool Foam::functionObjectList::read()
    in file db/functionObjects/functionObjectList/functionObjectList.C at line 1035
    Reading "system/controlDict" at line 2 to 41
    Entry 'viscRatio' is not a dictionary
--> FOAM Warning : 
    From bool Foam::functionObjectList::read()
    in file db/functionObjects/functionObjectList/functionObjectList.C at line 1035
    Reading "system/controlDict" at line 2 to 41
    Entry 'Tu' is not a dictionary
--> FOAM Warning : 
    From bool Foam::functionObjectList::read()
    in file db/functionObjects/functionObjectList/functionObjectList.C at line 1035
    Reading "system/controlDict" at line 2 to 41
    Entry 'LESturbModel' is not a dictionary
--> FOAM Warning : 
    From bool Foam::functionObjectList::read()
    in file db/functionObjects/functionObjectList/functionObjectList.C at line 1035
    Reading "system/controlDict" at line 2 to 41
    Entry 'RASturbModel' is not a dictionary
--> FOAM Warning : 
    From bool Foam::functionObjectList::read()
    in file db/functionObjects/functionObjectList/functionObjectList.C at line 1035
    Reading "system/controlDict" at line 2 to 41
    Entry 'deltaTurb' is not a dictionary
--> FOAM Warning : 
    From bool Foam::functionObjectList::read()
    in file db/functionObjects/functionObjectList/functionObjectList.C at line 1035
    Reading "system/controlDict" at line 2 to 41
    Entry 'dt' is not a dictionary
--> FOAM Warning : 
    From bool Foam::functionObjectList::read()
    in file db/functionObjects/functionObjectList/functionObjectList.C at line 1035
    Reading "system/controlDict" at line 2 to 41
    Entry 'tAvg' is not a dictionary
--> FOAM Warning : 
    From bool Foam::functionObjectList::read()
    in file db/functionObjects/functionObjectList/functionObjectList.C at line 1035
    Reading "system/controlDict" at line 2 to 41
    Entry 'tEnd' is not a dictionary
--> FOAM Warning : 
    From bool Foam::functionObjectList::read()
    in file db/functionObjects/functionObjectList/functionObjectList.C at line 1035
    Reading "system/controlDict" at line 2 to 41
    Entry 'writeInterval_' is not a dictionary
--> FOAM Warning : 
    From bool Foam::functionObjectList::read()
    in file db/functionObjects/functionObjectList/functionObjectList.C at line 1035
    Reading "system/controlDict" at line 2 to 41
    Entry 'nCores' is not a dictionary
--> FOAM Warning : 
    From bool Foam::functionObjectList::read()
    in file db/functionObjects/functionObjectList/functionObjectList.C at line 1035
    Reading "system/controlDict" at line 2 to 41
    Entry 'interpScheme' is not a dictionary
--> FOAM Warning : 
    From bool Foam::functionObjectList::read()
    in file db/functionObjects/functionObjectList/functionObjectList.C at line 1035
    Reading "system/controlDict" at line 2 to 41
    Entry 'probeField' is not a dictionary
wallShearStress wallShearStress:
    processing wall patches: 
        Windsor_Body
        CFDWT_Floor
        Windsor_Pins
        Windsor_Base
        Windsor_Body_2
        CFDWT_Floor_2
        Windsor_Pins_2
        Windsor_Base_2
        Windsor_Body_3
        CFDWT_Floor_3
        Windsor_Pins_3
        Windsor_Base_3
        Windsor_Body_4
        CFDWT_Floor_4
        Windsor_Pins_4
        Windsor_Base_4

pressure calc_cp:
    Operating mode: staticCoeff
    Not including hydrostatic effects

forceCoeffs forceCoeffsAll:
    rho: rhoInf
    Freestream density (rhoInf) set to 1
    Not including porosity effects
    magUInf: 40
    lRef   : 0.6375
    Aref   : 0.1124
    rhoInf : 1
    Selecting all coefficients
    - Drag force: Cd
    - Drag force front: Cd(f)
    - Drag force rear: Cd(r)
    - Lift force: Cl
    - Lift force front: Cl(f)
    - Lift force rear: Cl(r)
    - Pitch moment: CmPitch
    - Roll moment: CmRoll
    - Yaw moment: CmYaw
    - Side force: Cs
    - Side force front: Cs(f)
    - Side force rear: Cs(r)


forceCoeffs dragCoeffBase:
    rho: rhoInf
    Freestream density (rhoInf) set to 1
    Not including porosity effects
    magUInf: 40
    lRef   : 0.6375
    Aref   : 0.1124
    rhoInf : 1
    Selecting coefficients:
    - Drag force: Cd


Time = 1

velocityDampingConstraint velocityDamping damped 0 (0%) of cells, with max limit 300
smoothSolver:  Solving for Ux, Initial residual = 0.9999999999995391, Final residual = 0.08530455822844459, No Iterations 3
smoothSolver:  Solving for Uy, Initial residual = 1, Final residual = 0.06555447082645811, No Iterations 6
smoothSolver:  Solving for Uz, Initial residual = 1, Final residual = 0.01751046851150119, No Iterations 2
[OGL LOG][lduLduBase.H:119] Initialising OGL
	OGL commit:  e75313f+
	Branch: dev 
	Build type: Debug
	Ginkgo version: 1.8.0 ( develop)
	Ginkgo commit: sparse-communicator
	MPI is GPU aware: 1
	Forces host buffer based communication: 0
	CPU ranks per GPU: 1
	Matrix format: Coo
	End OGL_INFO
[OGL LOG][Proc: 0]: global_index_init: 0.06900000000000001 [ms]
[OGL LOG][Proc: 0]p_local_cols: call_init: 1.267 [ms]
[OGL LOG][Proc: 0]p_local_rows: call_init: 0.317 [ms]
[OGL LOG][Proc: 0]p_local_ldu_map: call_init: 0.357 [ms]
[OGL LOG][Proc: 0]p_local_coeffs: call_init: 4.452 [ms]
[OGL LOG][Proc: 0]p_non_local_cols: call_init: 0.544 [ms]
[OGL LOG][Proc: 0]p_non_local_rows: call_init: 0.223 [ms]
[OGL LOG][Proc: 0]p_non_local_ldu_map: call_init: 0.229 [ms]
[OGL LOG][Proc: 0]p_non_local_coeffs: call_init: 0.269 [ms]
[OGL LOG][Proc: 0]p: init_local_sparsity_pattern: 131692.943 [ms]
[OGL LOG][Proc: 0]p: init_non_local_sparsity_pattern: 65.974 [ms]
[OGL LOG][Proc: 0]p: update_local_matrix_data: 143.346 [ms]
[OGL LOG][Proc: 0]p: update_non_local_matrix_data: 0.633 [ms]
[OGL LOG][Proc: 0]device_partition: call_init: 0.181 [ms]
[OGL LOG][Proc: 0]p_matrix: call_init: 307.288 [ms]
[OGL LOG][Proc: 0]p_rhs: call_init: 4.559 [ms]
[OGL LOG][Proc: 0]p_solution: call_init: 4.337 [ms]
[OGL LOG][Preconditioner.H:346] Generate preconditioner Multigrid MaxLevels 9 MinCoarseRows 10 ZeroGuess 1 Cycle v
[OGL LOG][Proc: 0]p: init_precond: 846.9109999999999 [ms]
[OGL LOG][StoppingCriterion.H:239] Creating stopping criterion with minIter 0 frequency 1
[OGL LOG][Proc: 0]p: generate_solver: 0.031 [ms]
[OGL LOG][Proc: 0]p: solve: 2402.402 [ms]
[OGL LOG][Proc: 0]p: copy_x_back: 14.256 [ms]
[OGL LOG][lduLduBase.H:330] 
Statistics:
	Time per iteration: 22452 [mu s]
	Time per residual norm calculation: 1157.000000 [mu s]
	Time per iteration and DOF: 0.889944 [ns]
	Retrieve results bandwidth 1.771000 [GByte/s]
[OGL LOG][Proc: 0]p: solve_multi_gpu: 3711.056 [ms]
MultigridcudaGKOCG:  Solving for p, Initial residual = 1.000000000000967, Final residual = 0.00933672116749595, No Iterations 107
time step continuity errors : sum local = 0.003393166528140458, global = 2.878923765073493e-05, cumulative = 2.878923765073493e-05
smoothSolver:  Solving for nuTilda, Initial residual = 0.9999999954775611, Final residual = 0.05256124803227625, No Iterations 3
ExecutionTime = 178.72 s  ClockTime = 179 s

--> FOAM Warning : 
    From virtual bool Foam::functionObjects::fieldSelection::checkSelection()
    in file functionObjects/fieldSelections/fieldSelection/fieldSelection.C at line 166
    Field k not found
--> FOAM Warning : 
    From virtual bool Foam::functionObjects::fieldSelection::checkSelection()
    in file functionObjects/fieldSelections/fieldSelection/fieldSelection.C at line 166
    Field gammaInt not found
--> FOAM Warning : 
    From virtual bool Foam::functionObjects::fieldSelection::checkSelection()
    in file functionObjects/fieldSelections/fieldSelection/fieldSelection.C at line 166
    Field omega not found
--> FOAM Warning : 
    From virtual bool Foam::functionObjects::fieldSelection::checkSelection()
    in file functionObjects/fieldSelections/fieldSelection/fieldSelection.C at line 166
    Field ReThetat not found
--> FOAM Warning : 
    From virtual bool Foam::functionObjects::fieldSelection::checkSelection()
    in file functionObjects/fieldSelections/fieldSelection/fieldSelection.C at line 166
    Field epsilon not found
--> FOAM Warning : 
    From virtual bool Foam::functionObjects::solverFieldSelection::updateSelection()
    in file functionObjects/fieldSelections/solverFieldSelection/solverFieldSelection.C at line 85
    Valid solver fields are: 3(U nuTilda p)Time = 2

velocityDampingConstraint velocityDamping damped 0 (0%) of cells, with max limit 300
smoothSolver:  Solving for Ux, Initial residual = 0.4348108879345516, Final residual = 0.02785863774101865, No Iterations 5
smoothSolver:  Solving for Uy, Initial residual = 0.5804788815615602, Final residual = 0.03751689672203841, No Iterations 5
smoothSolver:  Solving for Uz, Initial residual = 0.5439906723039025, Final residual = 0.05437637863044411, No Iterations 4
[OGL LOG][Proc: 0]: global_index_init: 0.017 [ms]
[OGL LOG][Proc: 0]p_local_coeffs: call_update: 0.001 [ms]
[OGL LOG][Proc: 0]p_non_local_coeffs: call_update: 0 [ms]
[OGL LOG][Proc: 0]p: update_local_matrix_data: 140.421 [ms]
[OGL LOG][Proc: 0]p: update_non_local_matrix_data: 0.575 [ms]
[OGL LOG][Proc: 0]p_matrix: call_update: 5.102 [ms]
[OGL LOG][Proc: 0]p_rhs: call_update: 3.515 [ms]
[OGL LOG][Preconditioner.H:346] Generate preconditioner Multigrid MaxLevels 9 MinCoarseRows 10 ZeroGuess 1 Cycle v
[OGL LOG][Proc: 0]p: init_precond: 776.974 [ms]
[OGL LOG][StoppingCriterion.H:239] Creating stopping criterion with minIter 64 frequency 1
[OGL LOG][Proc: 0]p: generate_solver: 0.014 [ms]
[OGL LOG][Proc: 0]p: solve: 1451.997 [ms]
[OGL LOG][Proc: 0]p: copy_x_back: 10.497 [ms]
[OGL LOG][lduLduBase.H:330] 
Statistics:
	Time per iteration: 22338 [mu s]
	Time per residual norm calculation: 1305.000000 [mu s]
	Time per iteration and DOF: 0.885426 [ns]
	Retrieve results bandwidth 2.406000 [GByte/s]
[OGL LOG][Proc: 0]p: solve_multi_gpu: 2287.234 [ms]
MultigridcudaGKOCG:  Solving for p, Initial residual = 0.4316612992189737, Final residual = 0.001910776289496213, No Iterations 65
time step continuity errors : sum local = 0.04171396960442965, global = 0.007871325820913933, cumulative = 0.007900115058564668
smoothSolver:  Solving for nuTilda, Initial residual = 0.2989184862819905, Final residual = 0.01990838455088264, No Iterations 2
ExecutionTime = 195.64 s  ClockTime = 197 s

Time = 3

velocityDampingConstraint velocityDamping damped 18404 (0.07000000000000001%) of cells, with max limit 300
smoothSolver:  Solving for Ux, Initial residual = 0.291828503314452, Final residual = 0.01815105772432312, No Iterations 2
smoothSolver:  Solving for Uy, Initial residual = 0.2824609587671716, Final residual = 0.02600963134720031, No Iterations 4
smoothSolver:  Solving for Uz, Initial residual = 0.2581585605475128, Final residual = 0.02253553178676462, No Iterations 4
[OGL LOG][Proc: 0]: global_index_init: 0.023 [ms]
[OGL LOG][Proc: 0]p_local_coeffs: call_update: 0 [ms]
[OGL LOG][Proc: 0]p_non_local_coeffs: call_update: 0 [ms]
[OGL LOG][Proc: 0]p: update_local_matrix_data: 141.898 [ms]
[OGL LOG][Proc: 0]p: update_non_local_matrix_data: 0.571 [ms]
[OGL LOG][Proc: 0]p_matrix: call_update: 3.845 [ms]
[OGL LOG][Proc: 0]p_rhs: call_update: 4.13 [ms]
[OGL LOG][Preconditioner.H:346] Generate preconditioner Multigrid MaxLevels 9 MinCoarseRows 10 ZeroGuess 1 Cycle v
[OGL LOG][Proc: 0]p: init_precond: 740.081 [ms]
[OGL LOG][StoppingCriterion.H:239] Creating stopping criterion with minIter 39 frequency 1
[OGL LOG][Proc: 0]p: generate_solver: 0.008999999999999999 [ms]
[OGL LOG][Proc: 0]p: solve: 1865.055 [ms]
[OGL LOG][Proc: 0]p: copy_x_back: 10.662 [ms]
[OGL LOG][lduLduBase.H:330] 
Statistics:
	Time per iteration: 21686 [mu s]
	Time per residual norm calculation: 1304.000000 [mu s]
	Time per iteration and DOF: 0.859582 [ns]
	Retrieve results bandwidth 2.369000 [GByte/s]
[OGL LOG][Proc: 0]p: solve_multi_gpu: 2661.197 [ms]
MultigridcudaGKOCG:  Solving for p, Initial residual = 0.3352102234350121, Final residual = 0.003158513894426196, No Iterations 86
time step continuity errors : sum local = 0.02002206672739487, global = 0.0001418494880634403, cumulative = 0.008041964546628108
smoothSolver:  Solving for nuTilda, Initial residual = 0.3319327944575851, Final residual = 0.02752036012448831, No Iterations 1
ExecutionTime = 212.43 s  ClockTime = 213 s

Time = 4

velocityDampingConstraint velocityDamping damped 179 (0%) of cells, with max limit 300
smoothSolver:  Solving for Ux, Initial residual = 0.03626062259806419, Final residual = 0.00292202715878214, No Iterations 4
smoothSolver:  Solving for Uy, Initial residual = 0.0530795893772054, Final residual = 0.004637821535613712, No Iterations 4
smoothSolver:  Solving for Uz, Initial residual = 0.05000109246427419, Final residual = 0.004446179880445416, No Iterations 4
[OGL LOG][Proc: 0]: global_index_init: 0.019 [ms]
[OGL LOG][Proc: 0]p_local_coeffs: call_update: 0 [ms]
[OGL LOG][Proc: 0]p_non_local_coeffs: call_update: 0 [ms]
[OGL LOG][Proc: 0]p: update_local_matrix_data: 141.836 [ms]
[OGL LOG][Proc: 0]p: update_non_local_matrix_data: 0.595 [ms]
[OGL LOG][Proc: 0]p_matrix: call_update: 3.574 [ms]
[OGL LOG][Proc: 0]p_rhs: call_update: 4.23 [ms]
[OGL LOG][Preconditioner.H:346] Generate preconditioner Multigrid MaxLevels 9 MinCoarseRows 10 ZeroGuess 1 Cycle v
[OGL LOG][Proc: 0]p: init_precond: 752.789 [ms]
[OGL LOG][StoppingCriterion.H:239] Creating stopping criterion with minIter 51 frequency 1
[OGL LOG][Proc: 0]p: generate_solver: 0.008999999999999999 [ms]
[OGL LOG][Proc: 0]p: solve: 1192.049 [ms]
[OGL LOG][Proc: 0]p: copy_x_back: 10.316 [ms]
[OGL LOG][lduLduBase.H:330] 
Statistics:
	Time per iteration: 22924 [mu s]
	Time per residual norm calculation: 1156.000000 [mu s]
	Time per iteration and DOF: 0.908653 [ns]
	Retrieve results bandwidth 2.448000 [GByte/s]
[OGL LOG][Proc: 0]p: solve_multi_gpu: 1999.578 [ms]
MultigridcudaGKOCG:  Solving for p, Initial residual = 0.4411424930704415, Final residual = 0.001697523991249728, No Iterations 52
time step continuity errors : sum local = 0.01763823467127561, global = -0.002757853792323631, cumulative = 0.005284110754304476
smoothSolver:  Solving for nuTilda, Initial residual = 0.1526635295642073, Final residual = 0.006650976722582151, No Iterations 3
ExecutionTime = 228.92 s  ClockTime = 230 s

Time = 5

velocityDampingConstraint velocityDamping damped 5525 (0.02%) of cells, with max limit 300
smoothSolver:  Solving for Ux, Initial residual = 0.1846405689007104, Final residual = 0.01541216031880453, No Iterations 3
smoothSolver:  Solving for Uy, Initial residual = 0.2606147913565438, Final residual = 0.02108167895485028, No Iterations 4
smoothSolver:  Solving for Uz, Initial residual = 0.2211756571824204, Final residual = 0.01683452945580483, No Iterations 4
[OGL LOG][Proc: 0]: global_index_init: 0.115 [ms]
[OGL LOG][Proc: 0]p_local_coeffs: call_update: 0 [ms]
[OGL LOG][Proc: 0]p_non_local_coeffs: call_update: 0 [ms]
[OGL LOG][Proc: 0]p: update_local_matrix_data: 140.812 [ms]
[OGL LOG][Proc: 0]p: update_non_local_matrix_data: 0.608 [ms]
[OGL LOG][Proc: 0]p_matrix: call_update: 4.032 [ms]
[OGL LOG][Proc: 0]p_rhs: call_update: 4.129 [ms]
[OGL LOG][Preconditioner.H:346] Generate preconditioner Multigrid MaxLevels 9 MinCoarseRows 10 ZeroGuess 1 Cycle v
[OGL LOG][Proc: 0]p: init_precond: 764.247 [ms]
[OGL LOG][StoppingCriterion.H:239] Creating stopping criterion with minIter 31 frequency 1
[OGL LOG][Proc: 0]p: generate_solver: 0.008999999999999999 [ms]
[OGL LOG][Proc: 0]p: solve: 1800.922 [ms]
[OGL LOG][Proc: 0]p: copy_x_back: 10.409 [ms]
[OGL LOG][lduLduBase.H:330] 
Statistics:
	Time per iteration: 22233 [mu s]
	Time per residual norm calculation: 1295.000000 [mu s]
	Time per iteration and DOF: 0.881264 [ns]
	Retrieve results bandwidth 2.426000 [GByte/s]
[OGL LOG][Proc: 0]p: solve_multi_gpu: 2623.866 [ms]
MultigridcudaGKOCG:  Solving for p, Initial residual = 0.3169215519087521, Final residual = 0.003163265055870046, No Iterations 81
time step continuity errors : sum local = 0.02951639728373125, global = -0.0002402545083469293, cumulative = 0.005043856245957547
smoothSolver:  Solving for nuTilda, Initial residual = 0.1178458511796493, Final residual = 0.01040476888950746, No Iterations 2
ExecutionTime = 245.83 s  ClockTime = 247 s

Time = 6

velocityDampingConstraint velocityDamping damped 429 (0%) of cells, with max limit 300
smoothSolver:  Solving for Ux, Initial residual = 0.1332214230381619, Final residual = 0.01254723752339617, No Iterations 4
smoothSolver:  Solving for Uy, Initial residual = 0.2503673764237422, Final residual = 0.01516218909183971, No Iterations 5
smoothSolver:  Solving for Uz, Initial residual = 0.203090223317082, Final residual = 0.01947301499613738, No Iterations 4
[OGL LOG][Proc: 0]: global_index_init: 0.138 [ms]
[OGL LOG][Proc: 0]p_local_coeffs: call_update: 0 [ms]
[OGL LOG][Proc: 0]p_non_local_coeffs: call_update: 0 [ms]
[OGL LOG][Proc: 0]p: update_local_matrix_data: 141.43 [ms]
[OGL LOG][Proc: 0]p: update_non_local_matrix_data: 0.57 [ms]
[OGL LOG][Proc: 0]p_matrix: call_update: 4.515 [ms]
[OGL LOG][Proc: 0]p_rhs: call_update: 3.782 [ms]
[OGL LOG][Preconditioner.H:346] Generate preconditioner Multigrid MaxLevels 9 MinCoarseRows 10 ZeroGuess 1 Cycle v
[OGL LOG][Proc: 0]p: init_precond: 742.4160000000001 [ms]
[OGL LOG][StoppingCriterion.H:239] Creating stopping criterion with minIter 48 frequency 1
[OGL LOG][Proc: 0]p: generate_solver: 0.008999999999999999 [ms]
[OGL LOG][Proc: 0]p: solve: 1273.773 [ms]
[OGL LOG][Proc: 0]p: copy_x_back: 10.053 [ms]
[OGL LOG][lduLduBase.H:330] 
Statistics:
	Time per iteration: 21961 [mu s]
	Time per residual norm calculation: 1300.000000 [mu s]
	Time per iteration and DOF: 0.870482 [ns]
	Retrieve results bandwidth 2.512000 [GByte/s]
[OGL LOG][Proc: 0]p: solve_multi_gpu: 2072.759 [ms]
MultigridcudaGKOCG:  Solving for p, Initial residual = 0.3875965933878068, Final residual = 0.003826645273900885, No Iterations 58
time step continuity errors : sum local = 0.0289215982156957, global = -0.005471998201398177, cumulative = -0.0004281419554406302
smoothSolver:  Solving for nuTilda, Initial residual = 0.07912836185236928, Final residual = 0.004942897989756294, No Iterations 3
ExecutionTime = 262.42 s  ClockTime = 263 s

Time = 7

velocityDampingConstraint velocityDamping damped 1841 (0.01%) of cells, with max limit 300
smoothSolver:  Solving for Ux, Initial residual = 0.09393570049543745, Final residual = 0.006034410669462678, No Iterations 4
smoothSolver:  Solving for Uy, Initial residual = 0.1074456405527727, Final residual = 0.008172720050067278, No Iterations 4
smoothSolver:  Solving for Uz, Initial residual = 0.1028392140548073, Final residual = 0.007819533008373108, No Iterations 4
[OGL LOG][Proc: 0]: global_index_init: 0.015 [ms]
[OGL LOG][Proc: 0]p_local_coeffs: call_update: 0 [ms]
[OGL LOG][Proc: 0]p_non_local_coeffs: call_update: 0 [ms]
[OGL LOG][Proc: 0]p: update_local_matrix_data: 138.359 [ms]
[OGL LOG][Proc: 0]p: update_non_local_matrix_data: 0.608 [ms]
[OGL LOG][Proc: 0]p_matrix: call_update: 4.211 [ms]
[OGL LOG][Proc: 0]p_rhs: call_update: 3.932 [ms]
[OGL LOG][Preconditioner.H:346] Generate preconditioner Multigrid MaxLevels 9 MinCoarseRows 10 ZeroGuess 1 Cycle v
[OGL LOG][Proc: 0]p: init_precond: 752.889 [ms]
[OGL LOG][StoppingCriterion.H:239] Creating stopping criterion with minIter 34 frequency 1
[OGL LOG][Proc: 0]p: generate_solver: 0.008999999999999999 [ms]
[OGL LOG][Proc: 0]p: solve: 884.7619999999999 [ms]
[OGL LOG][Proc: 0]p: copy_x_back: 10.093 [ms]
[OGL LOG][lduLduBase.H:330] 
Statistics:
	Time per iteration: 23912 [mu s]
	Time per residual norm calculation: 1449.000000 [mu s]
	Time per iteration and DOF: 0.947815 [ns]
	Retrieve results bandwidth 2.502000 [GByte/s]
[OGL LOG][Proc: 0]p: solve_multi_gpu: 1691.832 [ms]
MultigridcudaGKOCG:  Solving for p, Initial residual = 0.261537420172425, Final residual = 0.002416145999502927, No Iterations 37
time step continuity errors : sum local = 0.01870449455102284, global = -0.002160207707729453, cumulative = -0.002588349663170083
smoothSolver:  Solving for nuTilda, Initial residual = 0.0638024374449401, Final residual = 0.003962851768340117, No Iterations 3
ExecutionTime = 278.52 s  ClockTime = 280 s

Time = 8

velocityDampingConstraint velocityDamping damped 1945 (0.01%) of cells, with max limit 300
smoothSolver:  Solving for Ux, Initial residual = 0.1218567955611803, Final residual = 0.009687511950486219, No Iterations 4
smoothSolver:  Solving for Uy, Initial residual = 0.1777873674642443, Final residual = 0.01589294795352068, No Iterations 4
smoothSolver:  Solving for Uz, Initial residual = 0.1693789118311079, Final residual = 0.01493464551950579, No Iterations 4
[OGL LOG][Proc: 0]: global_index_init: 0.017 [ms]
[OGL LOG][Proc: 0]p_local_coeffs: call_update: 0 [ms]
[OGL LOG][Proc: 0]p_non_local_coeffs: call_update: 0 [ms]
[OGL LOG][Proc: 0]p: update_local_matrix_data: 134.71 [ms]
[OGL LOG][Proc: 0]p: update_non_local_matrix_data: 0.571 [ms]
[OGL LOG][Proc: 0]p_matrix: call_update: 4.163 [ms]
[OGL LOG][Proc: 0]p_rhs: call_update: 4.184 [ms]
[OGL LOG][Preconditioner.H:346] Generate preconditioner Multigrid MaxLevels 9 MinCoarseRows 10 ZeroGuess 1 Cycle v
[OGL LOG][Proc: 0]p: init_precond: 754.02 [ms]
[OGL LOG][StoppingCriterion.H:239] Creating stopping criterion with minIter 22 frequency 1
[OGL LOG][Proc: 0]p: generate_solver: 0.008999999999999999 [ms]
[OGL LOG][Proc: 0]p: solve: 1811.978 [ms]
[OGL LOG][Proc: 0]p: copy_x_back: 10.225 [ms]
[OGL LOG][lduLduBase.H:330] 
Statistics:
	Time per iteration: 22370 [mu s]
	Time per residual norm calculation: 1300.000000 [mu s]
	Time per iteration and DOF: 0.886694 [ns]
	Retrieve results bandwidth 2.470000 [GByte/s]
[OGL LOG][Proc: 0]p: solve_multi_gpu: 2630.777 [ms]
MultigridcudaGKOCG:  Solving for p, Initial residual = 0.2829496618907279, Final residual = 0.002783654543490319, No Iterations 81
time step continuity errors : sum local = 0.01913978990276377, global = 0.0001406913760594969, cumulative = -0.002447658287110586
smoothSolver:  Solving for nuTilda, Initial residual = 0.04898041249399911, Final residual = 0.00379331519949226, No Iterations 3
ExecutionTime = 295.52 s  ClockTime = 297 s

Time = 9

velocityDampingConstraint velocityDamping damped 75 (0%) of cells, with max limit 300
smoothSolver:  Solving for Ux, Initial residual = 0.0728874358685688, Final residual = 0.005864334141278365, No Iterations 4
smoothSolver:  Solving for Uy, Initial residual = 0.1083515148583779, Final residual = 0.01019907480004412, No Iterations 4
smoothSolver:  Solving for Uz, Initial residual = 0.1016226113855467, Final residual = 0.009224464180035107, No Iterations 4
[OGL LOG][Proc: 0]: global_index_init: 0.016 [ms]
[OGL LOG][Proc: 0]p_local_coeffs: call_update: 0 [ms]
[OGL LOG][Proc: 0]p_non_local_coeffs: call_update: 0 [ms]
[OGL LOG][Proc: 0]p: update_local_matrix_data: 138.939 [ms]
[OGL LOG][Proc: 0]p: update_non_local_matrix_data: 0.5639999999999999 [ms]
[OGL LOG][Proc: 0]p_matrix: call_update: 4.44 [ms]
[OGL LOG][Proc: 0]p_rhs: call_update: 3.941 [ms]
[OGL LOG][Preconditioner.H:346] Generate preconditioner Multigrid MaxLevels 9 MinCoarseRows 10 ZeroGuess 1 Cycle v
[OGL LOG][Proc: 0]p: init_precond: 740.558 [ms]
[OGL LOG][StoppingCriterion.H:239] Creating stopping criterion with minIter 48 frequency 1
[OGL LOG][Proc: 0]p: generate_solver: 0.01 [ms]
[OGL LOG][Proc: 0]p: solve: 1748.451 [ms]
[OGL LOG][Proc: 0]p: copy_x_back: 10.215 [ms]
[OGL LOG][lduLduBase.H:330] 
Statistics:
	Time per iteration: 21585 [mu s]
	Time per residual norm calculation: 1299.000000 [mu s]
	Time per iteration and DOF: 0.855579 [ns]
	Retrieve results bandwidth 2.472000 [GByte/s]
[OGL LOG][Proc: 0]p: solve_multi_gpu: 2547.47 [ms]
MultigridcudaGKOCG:  Solving for p, Initial residual = 0.4480784584461744, Final residual = 0.003792535263724721, No Iterations 81
time step continuity errors : sum local = 0.01756678133777313, global = 0.0002658957314036265, cumulative = -0.00218176255570696
smoothSolver:  Solving for nuTilda, Initial residual = 0.0422327184821789, Final residual = 0.003173279415048155, No Iterations 3
ExecutionTime = 312.44 s  ClockTime = 314 s

Time = 10

velocityDampingConstraint velocityDamping damped 158 (0%) of cells, with max limit 300
smoothSolver:  Solving for Ux, Initial residual = 0.02830635381699157, Final residual = 0.002040299133377944, No Iterations 4
smoothSolver:  Solving for Uy, Initial residual = 0.05939392355432731, Final residual = 0.004417278451431801, No Iterations 4
smoothSolver:  Solving for Uz, Initial residual = 0.05824047155010716, Final residual = 0.004447545621226753, No Iterations 4
[OGL LOG][Proc: 0]: global_index_init: 0.018 [ms]
[OGL LOG][Proc: 0]p_local_coeffs: call_update: 0 [ms]
[OGL LOG][Proc: 0]p_non_local_coeffs: call_update: 0 [ms]
[OGL LOG][Proc: 0]p: update_local_matrix_data: 149.698 [ms]
[OGL LOG][Proc: 0]p: update_non_local_matrix_data: 0.585 [ms]
[OGL LOG][Proc: 0]p_matrix: call_update: 5.625 [ms]
[OGL LOG][Proc: 0]p_rhs: call_update: 7.201 [ms]
[OGL LOG][Preconditioner.H:346] Generate preconditioner Multigrid MaxLevels 9 MinCoarseRows 10 ZeroGuess 1 Cycle v
[OGL LOG][Proc: 0]p: init_precond: 830.4880000000001 [ms]
[OGL LOG][StoppingCriterion.H:239] Creating stopping criterion with minIter 48 frequency 1
[OGL LOG][Proc: 0]p: generate_solver: 0.01 [ms]
[OGL LOG][Proc: 0]p: solve: 1136.939 [ms]
[OGL LOG][Proc: 0]p: copy_x_back: 10.253 [ms]
[OGL LOG][lduLduBase.H:330] 
Statistics:
	Time per iteration: 23202 [mu s]
	Time per residual norm calculation: 1152.000000 [mu s]
	Time per iteration and DOF: 0.919673 [ns]
	Retrieve results bandwidth 2.463000 [GByte/s]
[OGL LOG][Proc: 0]p: solve_multi_gpu: 2027.116 [ms]
MultigridcudaGKOCG:  Solving for p, Initial residual = 0.3903468624249963, Final residual = 0.001958658078202256, No Iterations 49
time step continuity errors : sum local = 0.008850667600799203, global = -0.001614010789265369, cumulative = -0.003795773344972329
smoothSolver:  Solving for nuTilda, Initial residual = 0.03548414826695682, Final residual = 0.002971116460138889, No Iterations 3
ExecutionTime = 328.73 s  ClockTime = 330 s

Time = 11

velocityDampingConstraint velocityDamping damped 679 (0%) of cells, with max limit 300
smoothSolver:  Solving for Ux, Initial residual = 0.04040560882587086, Final residual = 0.003170070375230247, No Iterations 4
smoothSolver:  Solving for Uy, Initial residual = 0.1040408549427127, Final residual = 0.009091402737940693, No Iterations 4
smoothSolver:  Solving for Uz, Initial residual = 0.09639229903993374, Final residual = 0.008394662312909515, No Iterations 4
[OGL LOG][Proc: 0]: global_index_init: 0.018 [ms]
[OGL LOG][Proc: 0]p_local_coeffs: call_update: 0 [ms]
[OGL LOG][Proc: 0]p_non_local_coeffs: call_update: 0 [ms]
[OGL LOG][Proc: 0]p: update_local_matrix_data: 138.067 [ms]
[OGL LOG][Proc: 0]p: update_non_local_matrix_data: 0.632 [ms]
[OGL LOG][Proc: 0]p_matrix: call_update: 4.375 [ms]
[OGL LOG][Proc: 0]p_rhs: call_update: 4.252 [ms]
[OGL LOG][Preconditioner.H:346] Generate preconditioner Multigrid MaxLevels 9 MinCoarseRows 10 ZeroGuess 1 Cycle v
[OGL LOG][Proc: 0]p: init_precond: 739.885 [ms]
[OGL LOG][StoppingCriterion.H:239] Creating stopping criterion with minIter 29 frequency 1
[OGL LOG][Proc: 0]p: generate_solver: 0.008999999999999999 [ms]
[OGL LOG][Proc: 0]p: solve: 1777.918 [ms]
[OGL LOG][Proc: 0]p: copy_x_back: 10.278 [ms]
[OGL LOG][lduLduBase.H:330] 
Statistics:
	Time per iteration: 22223 [mu s]
	Time per residual norm calculation: 1157.000000 [mu s]
	Time per iteration and DOF: 0.880867 [ns]
	Retrieve results bandwidth 2.457000 [GByte/s]
[OGL LOG][Proc: 0]p: solve_multi_gpu: 2578.774 [ms]
MultigridcudaGKOCG:  Solving for p, Initial residual = 0.4182119171702285, Final residual = 0.003885079007215126, No Iterations 80
time step continuity errors : sum local = 0.01566282543115508, global = -4.383427418668868e-05, cumulative = -0.003839607619159017
smoothSolver:  Solving for nuTilda, Initial residual = 0.03221713283452592, Final residual = 0.002583778312439282, No Iterations 3
ExecutionTime = 345.71 s  ClockTime = 347 s

Time = 12

velocityDampingConstraint velocityDamping damped 30 (0%) of cells, with max limit 300
smoothSolver:  Solving for Ux, Initial residual = 0.03842448307993333, Final residual = 0.003368106153136606, No Iterations 4
smoothSolver:  Solving for Uy, Initial residual = 0.08020918458082602, Final residual = 0.007100511972427009, No Iterations 4
smoothSolver:  Solving for Uz, Initial residual = 0.0790483808528267, Final residual = 0.006756862127747503, No Iterations 4
[OGL LOG][Proc: 0]: global_index_init: 0.017 [ms]
[OGL LOG][Proc: 0]p_local_coeffs: call_update: 0 [ms]
[OGL LOG][Proc: 0]p_non_local_coeffs: call_update: 0 [ms]
[OGL LOG][Proc: 0]p: update_local_matrix_data: 145.146 [ms]
[OGL LOG][Proc: 0]p: update_non_local_matrix_data: 0.569 [ms]
[OGL LOG][Proc: 0]p_matrix: call_update: 4.484 [ms]
[OGL LOG][Proc: 0]p_rhs: call_update: 3.688 [ms]
[OGL LOG][Preconditioner.H:346] Generate preconditioner Multigrid MaxLevels 9 MinCoarseRows 10 ZeroGuess 1 Cycle v
[OGL LOG][Proc: 0]p: init_precond: 733.181 [ms]
[OGL LOG][StoppingCriterion.H:239] Creating stopping criterion with minIter 48 frequency 1
[OGL LOG][Proc: 0]p: generate_solver: 0.008999999999999999 [ms]
[OGL LOG][Proc: 0]p: solve: 1100.738 [ms]
[OGL LOG][Proc: 0]p: copy_x_back: 10.563 [ms]
[OGL LOG][lduLduBase.H:330] 
Statistics:
	Time per iteration: 22464 [mu s]
	Time per residual norm calculation: 1152.000000 [mu s]
	Time per iteration and DOF: 0.890420 [ns]
	Retrieve results bandwidth 2.391000 [GByte/s]
[OGL LOG][Proc: 0]p: solve_multi_gpu: 1888.134 [ms]
MultigridcudaGKOCG:  Solving for p, Initial residual = 0.3836556484068588, Final residual = 0.003686288917147809, No Iterations 49
time step continuity errors : sum local = 0.01444026086086569, global = -0.002059406428000728, cumulative = -0.005899014047159745
smoothSolver:  Solving for nuTilda, Initial residual = 0.02868520226058485, Final residual = 0.002526823331975805, No Iterations 3
ExecutionTime = 361.92 s  ClockTime = 363 s

Time = 13

velocityDampingConstraint velocityDamping damped 49 (0%) of cells, with max limit 300
smoothSolver:  Solving for Ux, Initial residual = 0.02919737939123978, Final residual = 0.002369408700364908, No Iterations 4
smoothSolver:  Solving for Uy, Initial residual = 0.0588367789243803, Final residual = 0.004743510155788461, No Iterations 4
smoothSolver:  Solving for Uz, Initial residual = 0.05925105824675202, Final residual = 0.004592395848112427, No Iterations 4
[OGL LOG][Proc: 0]: global_index_init: 0.023 [ms]
[OGL LOG][Proc: 0]p_local_coeffs: call_update: 0 [ms]
[OGL LOG][Proc: 0]p_non_local_coeffs: call_update: 0 [ms]
[OGL LOG][Proc: 0]p: update_local_matrix_data: 137.489 [ms]
[OGL LOG][Proc: 0]p: update_non_local_matrix_data: 0.585 [ms]
[OGL LOG][Proc: 0]p_matrix: call_update: 4.136 [ms]
[OGL LOG][Proc: 0]p_rhs: call_update: 3.854 [ms]
[OGL LOG][Preconditioner.H:346] Generate preconditioner Multigrid MaxLevels 9 MinCoarseRows 10 ZeroGuess 1 Cycle v
[OGL LOG][Proc: 0]p: init_precond: 745.038 [ms]
[OGL LOG][StoppingCriterion.H:239] Creating stopping criterion with minIter 29 frequency 1
[OGL LOG][Proc: 0]p: generate_solver: 0.015 [ms]
[OGL LOG][Proc: 0]p: solve: 878.491 [ms]
[OGL LOG][Proc: 0]p: copy_x_back: 10.124 [ms]
[OGL LOG][lduLduBase.H:330] 
Statistics:
	Time per iteration: 25099 [mu s]
	Time per residual norm calculation: 1297.000000 [mu s]
	Time per iteration and DOF: 0.994865 [ns]
	Retrieve results bandwidth 2.495000 [GByte/s]
[OGL LOG][Proc: 0]p: solve_multi_gpu: 1682.624 [ms]
MultigridcudaGKOCG:  Solving for p, Initial residual = 0.375903523560021, Final residual = 0.003514183172222358, No Iterations 35
time step continuity errors : sum local = 0.01285783015647275, global = -0.0004916354459392882, cumulative = -0.006390649493099033
smoothSolver:  Solving for nuTilda, Initial residual = 0.02778391722641923, Final residual = 0.00234257755902823, No Iterations 3
ExecutionTime = 378.02 s  ClockTime = 379 s

Time = 14

velocityDampingConstraint velocityDamping damped 203 (0%) of cells, with max limit 300
smoothSolver:  Solving for Ux, Initial residual = 0.03621761332569206, Final residual = 0.002945078721212521, No Iterations 4
smoothSolver:  Solving for Uy, Initial residual = 0.06989760226286715, Final residual = 0.006226795087212112, No Iterations 4
smoothSolver:  Solving for Uz, Initial residual = 0.06673718123917437, Final residual = 0.005856344103069839, No Iterations 4
[OGL LOG][Proc: 0]: global_index_init: 0.019 [ms]
[OGL LOG][Proc: 0]p_local_coeffs: call_update: 0 [ms]
[OGL LOG][Proc: 0]p_non_local_coeffs: call_update: 0 [ms]
[OGL LOG][Proc: 0]p: update_local_matrix_data: 145.09 [ms]
[OGL LOG][Proc: 0]p: update_non_local_matrix_data: 0.641 [ms]
[OGL LOG][Proc: 0]p_matrix: call_update: 4.608 [ms]
[OGL LOG][Proc: 0]p_rhs: call_update: 3.82 [ms]
[OGL LOG][Preconditioner.H:346] Generate preconditioner Multigrid MaxLevels 9 MinCoarseRows 10 ZeroGuess 1 Cycle v
[OGL LOG][Proc: 0]p: init_precond: 749.561 [ms]
[OGL LOG][StoppingCriterion.H:239] Creating stopping criterion with minIter 21 frequency 1
[OGL LOG][Proc: 0]p: generate_solver: 0.008999999999999999 [ms]
[OGL LOG][Proc: 0]p: solve: 1754.27 [ms]
[OGL LOG][Proc: 0]p: copy_x_back: 10.168 [ms]
[OGL LOG][lduLduBase.H:330] 
Statistics:
	Time per iteration: 22205 [mu s]
	Time per residual norm calculation: 1297.000000 [mu s]
	Time per iteration and DOF: 0.880154 [ns]
	Retrieve results bandwidth 2.484000 [GByte/s]
[OGL LOG][Proc: 0]p: solve_multi_gpu: 2558.186 [ms]
MultigridcudaGKOCG:  Solving for p, Initial residual = 0.3519547338679576, Final residual = 0.003126807015204053, No Iterations 79
time step continuity errors : sum local = 0.00989154972905645, global = 5.275257395263074e-05, cumulative = -0.006337896919146402
smoothSolver:  Solving for nuTilda, Initial residual = 0.02582674301797486, Final residual = 0.002365715672200413, No Iterations 3
ExecutionTime = 394.88 s  ClockTime = 396 s

Time = 15

velocityDampingConstraint velocityDamping damped 26 (0%) of cells, with max limit 300
smoothSolver:  Solving for Ux, Initial residual = 0.02769938575937646, Final residual = 0.002241551143378838, No Iterations 4
smoothSolver:  Solving for Uy, Initial residual = 0.04763945862703087, Final residual = 0.004145323235587765, No Iterations 4
smoothSolver:  Solving for Uz, Initial residual = 0.04646242812955794, Final residual = 0.003915983805020544, No Iterations 4
[OGL LOG][Proc: 0]: global_index_init: 0.017 [ms]
[OGL LOG][Proc: 0]p_local_coeffs: call_update: 0 [ms]
[OGL LOG][Proc: 0]p_non_local_coeffs: call_update: 0 [ms]
[OGL LOG][Proc: 0]p: update_local_matrix_data: 137.955 [ms]
[OGL LOG][Proc: 0]p: update_non_local_matrix_data: 0.593 [ms]
[OGL LOG][Proc: 0]p_matrix: call_update: 4.292 [ms]
[OGL LOG][Proc: 0]p_rhs: call_update: 4.225 [ms]
[OGL LOG][Preconditioner.H:346] Generate preconditioner Multigrid MaxLevels 9 MinCoarseRows 10 ZeroGuess 1 Cycle v
[OGL LOG][Proc: 0]p: init_precond: 751.779 [ms]
[OGL LOG][StoppingCriterion.H:239] Creating stopping criterion with minIter 47 frequency 1
[OGL LOG][Proc: 0]p: generate_solver: 0.012 [ms]
[OGL LOG][Proc: 0]p: solve: 1627.431 [ms]
[OGL LOG][Proc: 0]p: copy_x_back: 10.407 [ms]
[OGL LOG][lduLduBase.H:330] 
Statistics:
	Time per iteration: 21413 [mu s]
	Time per residual norm calculation: 1297.000000 [mu s]
	Time per iteration and DOF: 0.848761 [ns]
	Retrieve results bandwidth 2.427000 [GByte/s]
[OGL LOG][Proc: 0]p: solve_multi_gpu: 2441 [ms]
MultigridcudaGKOCG:  Solving for p, Initial residual = 0.3342805832500991, Final residual = 0.003043981538322191, No Iterations 76
time step continuity errors : sum local = 0.008989182002639205, global = 0.0003004001068471669, cumulative = -0.006037496812299236
smoothSolver:  Solving for nuTilda, Initial residual = 0.0257722087394022, Final residual = 0.002211123722344566, No Iterations 3
ExecutionTime = 411.81 s  ClockTime = 413 s

Time = 16

velocityDampingConstraint velocityDamping damped 0 (0%) of cells, with max limit 300
smoothSolver:  Solving for Ux, Initial residual = 0.01759899374025221, Final residual = 0.001342889634812028, No Iterations 4
smoothSolver:  Solving for Uy, Initial residual = 0.03792040661263805, Final residual = 0.002857546673533514, No Iterations 4
smoothSolver:  Solving for Uz, Initial residual = 0.04175916898260729, Final residual = 0.003262675992836105, No Iterations 4
[OGL LOG][Proc: 0]: global_index_init: 0.022 [ms]
[OGL LOG][Proc: 0]p_local_coeffs: call_update: 0 [ms]
[OGL LOG][Proc: 0]p_non_local_coeffs: call_update: 0 [ms]
[OGL LOG][Proc: 0]p: update_local_matrix_data: 143.234 [ms]
[OGL LOG][Proc: 0]p: update_non_local_matrix_data: 0.588 [ms]
[OGL LOG][Proc: 0]p_matrix: call_update: 4.523 [ms]
[OGL LOG][Proc: 0]p_rhs: call_update: 3.473 [ms]
[OGL LOG][Preconditioner.H:346] Generate preconditioner Multigrid MaxLevels 9 MinCoarseRows 10 ZeroGuess 1 Cycle v
[OGL LOG][Proc: 0]p: init_precond: 741.854 [ms]
[OGL LOG][StoppingCriterion.H:239] Creating stopping criterion with minIter 45 frequency 1
[OGL LOG][Proc: 0]p: generate_solver: 0.008999999999999999 [ms]
[OGL LOG][Proc: 0]p: solve: 1026.668 [ms]
[OGL LOG][Proc: 0]p: copy_x_back: 10.155 [ms]
[OGL LOG][lduLduBase.H:330] 
Statistics:
	Time per iteration: 22318 [mu s]
	Time per residual norm calculation: 1303.000000 [mu s]
	Time per iteration and DOF: 0.884633 [ns]
	Retrieve results bandwidth 2.487000 [GByte/s]
[OGL LOG][Proc: 0]p: solve_multi_gpu: 1822.994 [ms]
MultigridcudaGKOCG:  Solving for p, Initial residual = 0.4206250027135289, Final residual = 0.002802116921360977, No Iterations 46
time step continuity errors : sum local = 0.006696023039971698, global = -0.001395363062545197, cumulative = -0.007432859874844432
smoothSolver:  Solving for nuTilda, Initial residual = 0.02366901554316891, Final residual = 0.002230856880480201, No Iterations 3
ExecutionTime = 428.08 s  ClockTime = 430 s

Time = 17

velocityDampingConstraint velocityDamping damped 13 (0%) of cells, with max limit 300
smoothSolver:  Solving for Ux, Initial residual = 0.01620925644919955, Final residual = 0.001157071971055633, No Iterations 4
smoothSolver:  Solving for Uy, Initial residual = 0.04334749255207886, Final residual = 0.003596679316167818, No Iterations 4
smoothSolver:  Solving for Uz, Initial residual = 0.04502486817089197, Final residual = 0.00377235741071216, No Iterations 4
[OGL LOG][Proc: 0]: global_index_init: 0.017 [ms]
[OGL LOG][Proc: 0]p_local_coeffs: call_update: 0 [ms]
[OGL LOG][Proc: 0]p_non_local_coeffs: call_update: 0 [ms]
[OGL LOG][Proc: 0]p: update_local_matrix_data: 138.149 [ms]
[OGL LOG][Proc: 0]p: update_non_local_matrix_data: 0.617 [ms]
[OGL LOG][Proc: 0]p_matrix: call_update: 4.111 [ms]
[OGL LOG][Proc: 0]p_rhs: call_update: 3.903 [ms]
[OGL LOG][Preconditioner.H:346] Generate preconditioner Multigrid MaxLevels 9 MinCoarseRows 10 ZeroGuess 1 Cycle v
[OGL LOG][Proc: 0]p: init_precond: 734.119 [ms]
[OGL LOG][StoppingCriterion.H:239] Creating stopping criterion with minIter 27 frequency 1
[OGL LOG][Proc: 0]p: generate_solver: 0.008999999999999999 [ms]
[OGL LOG][Proc: 0]p: solve: 1715.62 [ms]
[OGL LOG][Proc: 0]p: copy_x_back: 10.633 [ms]
[OGL LOG][lduLduBase.H:330] 
Statistics:
	Time per iteration: 21995 [mu s]
	Time per residual norm calculation: 1447.000000 [mu s]
	Time per iteration and DOF: 0.871830 [ns]
	Retrieve results bandwidth 2.375000 [GByte/s]
[OGL LOG][Proc: 0]p: solve_multi_gpu: 2510.183 [ms]
MultigridcudaGKOCG:  Solving for p, Initial residual = 0.3689272510021719, Final residual = 0.003318266399655571, No Iterations 78
time step continuity errors : sum local = 0.007909975016814967, global = -2.060152952905382e-05, cumulative = -0.007453461404373486
smoothSolver:  Solving for nuTilda, Initial residual = 0.02476635169394598, Final residual = 0.002075502279821321, No Iterations 3
ExecutionTime = 445.08 s  ClockTime = 447 s

Time = 18

velocityDampingConstraint velocityDamping damped 27 (0%) of cells, with max limit 300
smoothSolver:  Solving for Ux, Initial residual = 0.01440777191754527, Final residual = 0.001211929428510364, No Iterations 4
smoothSolver:  Solving for Uy, Initial residual = 0.03588740266793974, Final residual = 0.002948435353390892, No Iterations 4
smoothSolver:  Solving for Uz, Initial residual = 0.03685032858978732, Final residual = 0.003004468110203519, No Iterations 4
[OGL LOG][Proc: 0]: global_index_init: 0.017 [ms]
[OGL LOG][Proc: 0]p_local_coeffs: call_update: 0 [ms]
[OGL LOG][Proc: 0]p_non_local_coeffs: call_update: 0 [ms]
[OGL LOG][Proc: 0]p: update_local_matrix_data: 139.15 [ms]
[OGL LOG][Proc: 0]p: update_non_local_matrix_data: 0.555 [ms]
[OGL LOG][Proc: 0]p_matrix: call_update: 4.56 [ms]
[OGL LOG][Proc: 0]p_rhs: call_update: 3.578 [ms]
[OGL LOG][Preconditioner.H:346] Generate preconditioner Multigrid MaxLevels 9 MinCoarseRows 10 ZeroGuess 1 Cycle v
[OGL LOG][Proc: 0]p: init_precond: 751.149 [ms]
[OGL LOG][StoppingCriterion.H:239] Creating stopping criterion with minIter 46 frequency 1
[OGL LOG][Proc: 0]p: generate_solver: 0.008999999999999999 [ms]
[OGL LOG][Proc: 0]p: solve: 1031.588 [ms]
[OGL LOG][Proc: 0]p: copy_x_back: 10.293 [ms]
[OGL LOG][lduLduBase.H:330] 
Statistics:
	Time per iteration: 21948 [mu s]
	Time per residual norm calculation: 1298.000000 [mu s]
	Time per iteration and DOF: 0.869967 [ns]
	Retrieve results bandwidth 2.454000 [GByte/s]
[OGL LOG][Proc: 0]p: solve_multi_gpu: 1843.803 [ms]
MultigridcudaGKOCG:  Solving for p, Initial residual = 0.3216234622563951, Final residual = 0.001737873156134411, No Iterations 47
time step continuity errors : sum local = 0.00412339525244865, global = -0.0006337602679211669, cumulative = -0.008087221672294653
smoothSolver:  Solving for nuTilda, Initial residual = 0.02209647142889181, Final residual = 0.002116237731938378, No Iterations 3
ExecutionTime = 461.38 s  ClockTime = 463 s

Time = 19

velocityDampingConstraint velocityDamping damped 0 (0%) of cells, with max limit 300
smoothSolver:  Solving for Ux, Initial residual = 0.01451208030363801, Final residual = 0.001288063807529334, No Iterations 4
smoothSolver:  Solving for Uy, Initial residual = 0.03497573905986643, Final residual = 0.002966761657099706, No Iterations 4
smoothSolver:  Solving for Uz, Initial residual = 0.03454800182435817, Final residual = 0.002852217130791794, No Iterations 4
[OGL LOG][Proc: 0]: global_index_init: 0.023 [ms]
[OGL LOG][Proc: 0]p_local_coeffs: call_update: 0 [ms]
[OGL LOG][Proc: 0]p_non_local_coeffs: call_update: 0 [ms]
[OGL LOG][Proc: 0]p: update_local_matrix_data: 138.102 [ms]
[OGL LOG][Proc: 0]p: update_non_local_matrix_data: 0.584 [ms]
[OGL LOG][Proc: 0]p_matrix: call_update: 4.37 [ms]
[OGL LOG][Proc: 0]p_rhs: call_update: 3.961 [ms]
[OGL LOG][Preconditioner.H:346] Generate preconditioner Multigrid MaxLevels 9 MinCoarseRows 10 ZeroGuess 1 Cycle v
[OGL LOG][Proc: 0]p: init_precond: 812.071 [ms]
[OGL LOG][StoppingCriterion.H:239] Creating stopping criterion with minIter 28 frequency 1
[OGL LOG][Proc: 0]p: generate_solver: 0.008999999999999999 [ms]
[OGL LOG][Proc: 0]p: solve: 1068.737 [ms]
[OGL LOG][Proc: 0]p: copy_x_back: 9.891 [ms]
[OGL LOG][lduLduBase.H:330] 
Statistics:
	Time per iteration: 24289 [mu s]
	Time per residual norm calculation: 1448.000000 [mu s]
	Time per iteration and DOF: 0.962759 [ns]
	Retrieve results bandwidth 2.553000 [GByte/s]
[OGL LOG][Proc: 0]p: solve_multi_gpu: 1938.46 [ms]
MultigridcudaGKOCG:  Solving for p, Initial residual = 0.4408721054636885, Final residual = 0.004351512652082328, No Iterations 44
time step continuity errors : sum local = 0.006997670667163915, global = 0.001117736040874776, cumulative = -0.006969485631419877
smoothSolver:  Solving for nuTilda, Initial residual = 0.02554107632723865, Final residual = 0.001975419926870551, No Iterations 3
ExecutionTime = 477.37 s  ClockTime = 479 s

Time = 20

velocityDampingConstraint velocityDamping damped 1 (0%) of cells, with max limit 300
smoothSolver:  Solving for Ux, Initial residual = 0.01514523706673482, Final residual = 0.00127417334712626, No Iterations 4
smoothSolver:  Solving for Uy, Initial residual = 0.03325820066565004, Final residual = 0.002988881664885987, No Iterations 4
smoothSolver:  Solving for Uz, Initial residual = 0.03243903183289443, Final residual = 0.002800321430857731, No Iterations 4
[OGL LOG][Proc: 0]: global_index_init: 0.017 [ms]
[OGL LOG][Proc: 0]p_local_coeffs: call_update: 0 [ms]
[OGL LOG][Proc: 0]p_non_local_coeffs: call_update: 0 [ms]
[OGL LOG][Proc: 0]p: update_local_matrix_data: 139.449 [ms]
[OGL LOG][Proc: 0]p: update_non_local_matrix_data: 0.6 [ms]
[OGL LOG][Proc: 0]p_matrix: call_update: 4.64 [ms]
[OGL LOG][Proc: 0]p_rhs: call_update: 3.448 [ms]
[OGL LOG][Preconditioner.H:346] Generate preconditioner Multigrid MaxLevels 9 MinCoarseRows 10 ZeroGuess 1 Cycle v
[OGL LOG][Proc: 0]p: init_precond: 746.396 [ms]
[OGL LOG][StoppingCriterion.H:239] Creating stopping criterion with minIter 26 frequency 1
[OGL LOG][Proc: 0]p: generate_solver: 0.01 [ms]
[OGL LOG][Proc: 0]p: solve: 1644.047 [ms]
[OGL LOG][Proc: 0]p: copy_x_back: 10.536 [ms]
[OGL LOG][lduLduBase.H:330] 
Statistics:
	Time per iteration: 21632 [mu s]
	Time per residual norm calculation: 1299.000000 [mu s]
	Time per iteration and DOF: 0.857441 [ns]
	Retrieve results bandwidth 2.397000 [GByte/s]
[OGL LOG][Proc: 0]p: solve_multi_gpu: 2448.677 [ms]
MultigridcudaGKOCG:  Solving for p, Initial residual = 0.4021359448308128, Final residual = 0.003725093894257927, No Iterations 76
time step continuity errors : sum local = 0.005649752185366745, global = 5.697788664610659e-05, cumulative = -0.00691250774477377
smoothSolver:  Solving for nuTilda, Initial residual = 0.02102784090528039, Final residual = 0.002053551422323221, No Iterations 3
ExecutionTime = 493.92 s  ClockTime = 496 s

Time = 21

velocityDampingConstraint velocityDamping damped 15 (0%) of cells, with max limit 300
smoothSolver:  Solving for Ux, Initial residual = 0.0118215627122613, Final residual = 0.001016572513177985, No Iterations 4
smoothSolver:  Solving for Uy, Initial residual = 0.02558590809615231, Final residual = 0.002245868840308991, No Iterations 4
smoothSolver:  Solving for Uz, Initial residual = 0.02648862822185181, Final residual = 0.002212495977244438, No Iterations 4
[OGL LOG][Proc: 0]: global_index_init: 0.017 [ms]
[OGL LOG][Proc: 0]p_local_coeffs: call_update: 0 [ms]
[OGL LOG][Proc: 0]p_non_local_coeffs: call_update: 0 [ms]
[OGL LOG][Proc: 0]p: update_local_matrix_data: 140.422 [ms]
[OGL LOG][Proc: 0]p: update_non_local_matrix_data: 0.5590000000000001 [ms]
[OGL LOG][Proc: 0]p_matrix: call_update: 4.539 [ms]
[OGL LOG][Proc: 0]p_rhs: call_update: 3.461 [ms]
[OGL LOG][Preconditioner.H:346] Generate preconditioner Multigrid MaxLevels 9 MinCoarseRows 10 ZeroGuess 1 Cycle v
[OGL LOG][Proc: 0]p: init_precond: 761.775 [ms]
[OGL LOG][StoppingCriterion.H:239] Creating stopping criterion with minIter 45 frequency 1
[OGL LOG][Proc: 0]p: generate_solver: 0.008999999999999999 [ms]
[OGL LOG][Proc: 0]p: solve: 1034.776 [ms]
[OGL LOG][Proc: 0]p: copy_x_back: 10.207 [ms]
[OGL LOG][lduLduBase.H:330] 
Statistics:
	Time per iteration: 22495 [mu s]
	Time per residual norm calculation: 1303.000000 [mu s]
	Time per iteration and DOF: 0.891649 [ns]
	Retrieve results bandwidth 2.474000 [GByte/s]
[OGL LOG][Proc: 0]p: solve_multi_gpu: 1852.688 [ms]
MultigridcudaGKOCG:  Solving for p, Initial residual = 0.2134562539438312, Final residual = 0.000820205632004375, No Iterations 46
time step continuity errors : sum local = 0.00196347526167281, global = 0.0002393508335902388, cumulative = -0.006673156911183531
smoothSolver:  Solving for nuTilda, Initial residual = 0.0288356793777731, Final residual = 0.001905188040528824, No Iterations 3
ExecutionTime = 510.08 s  ClockTime = 512 s

Time = 22

velocityDampingConstraint velocityDamping damped 3 (0%) of cells, with max limit 300
smoothSolver:  Solving for Ux, Initial residual = 0.01009756640860775, Final residual = 0.0008202947485197256, No Iterations 4
smoothSolver:  Solving for Uy, Initial residual = 0.02444730853791483, Final residual = 0.001988796549835836, No Iterations 4
smoothSolver:  Solving for Uz, Initial residual = 0.02683752724589318, Final residual = 0.002158367181919296, No Iterations 4
[OGL LOG][Proc: 0]: global_index_init: 0.017 [ms]
[OGL LOG][Proc: 0]p_local_coeffs: call_update: 0 [ms]
[OGL LOG][Proc: 0]p_non_local_coeffs: call_update: 0 [ms]
[OGL LOG][Proc: 0]p: update_local_matrix_data: 135.272 [ms]
[OGL LOG][Proc: 0]p: update_non_local_matrix_data: 0.588 [ms]
[OGL LOG][Proc: 0]p_matrix: call_update: 3.918 [ms]
[OGL LOG][Proc: 0]p_rhs: call_update: 4.183 [ms]
[OGL LOG][Preconditioner.H:346] Generate preconditioner Multigrid MaxLevels 9 MinCoarseRows 10 ZeroGuess 1 Cycle v
[OGL LOG][Proc: 0]p: init_precond: 745.274 [ms]
[OGL LOG][StoppingCriterion.H:239] Creating stopping criterion with minIter 27 frequency 1
[OGL LOG][Proc: 0]p: generate_solver: 0.01 [ms]
[OGL LOG][Proc: 0]p: solve: 1516.68 [ms]
[OGL LOG][Proc: 0]p: copy_x_back: 10.242 [ms]
[OGL LOG][lduLduBase.H:330] 
Statistics:
	Time per iteration: 22637 [mu s]
	Time per residual norm calculation: 1299.000000 [mu s]
	Time per iteration and DOF: 0.897277 [ns]
	Retrieve results bandwidth 2.466000 [GByte/s]
[OGL LOG][Proc: 0]p: solve_multi_gpu: 2321.787 [ms]
MultigridcudaGKOCG:  Solving for p, Initial residual = 0.2481621129111864, Final residual = 0.002435660008770807, No Iterations 67
time step continuity errors : sum local = 0.004745173809751071, global = -0.000258572072196179, cumulative = -0.00693172898337971
smoothSolver:  Solving for nuTilda, Initial residual = 0.02001351385564305, Final residual = 0.001991913226151885, No Iterations 3
ExecutionTime = 526.67 s  ClockTime = 528 s

Time = 23

velocityDampingConstraint velocityDamping damped 0 (0%) of cells, with max limit 300
smoothSolver:  Solving for Ux, Initial residual = 0.009123983079573336, Final residual = 0.0007285838216234924, No Iterations 4
smoothSolver:  Solving for Uy, Initial residual = 0.02495003622442918, Final residual = 0.002096577632177703, No Iterations 4
smoothSolver:  Solving for Uz, Initial residual = 0.02618405333374705, Final residual = 0.002169975536789131, No Iterations 4
[OGL LOG][Proc: 0]: global_index_init: 0.019 [ms]
[OGL LOG][Proc: 0]p_local_coeffs: call_update: 0 [ms]
[OGL LOG][Proc: 0]p_non_local_coeffs: call_update: 0 [ms]
[OGL LOG][Proc: 0]p: update_local_matrix_data: 141.274 [ms]
[OGL LOG][Proc: 0]p: update_non_local_matrix_data: 0.665 [ms]
[OGL LOG][Proc: 0]p_matrix: call_update: 4.288 [ms]
[OGL LOG][Proc: 0]p_rhs: call_update: 3.719 [ms]
[OGL LOG][Preconditioner.H:346] Generate preconditioner Multigrid MaxLevels 9 MinCoarseRows 10 ZeroGuess 1 Cycle v
[OGL LOG][Proc: 0]p: init_precond: 749.908 [ms]
[OGL LOG][StoppingCriterion.H:239] Creating stopping criterion with minIter 40 frequency 1
[OGL LOG][Proc: 0]p: generate_solver: 0.01 [ms]
[OGL LOG][Proc: 0]p: solve: 1663.368 [ms]
[OGL LOG][Proc: 0]p: copy_x_back: 10.138 [ms]
[OGL LOG][lduLduBase.H:330] 
Statistics:
	Time per iteration: 22477 [mu s]
	Time per residual norm calculation: 1453.000000 [mu s]
	Time per iteration and DOF: 0.890935 [ns]
	Retrieve results bandwidth 2.491000 [GByte/s]
[OGL LOG][Proc: 0]p: solve_multi_gpu: 2468.335 [ms]
MultigridcudaGKOCG:  Solving for p, Initial residual = 0.3270609295925809, Final residual = 0.003129926356438972, No Iterations 74
time step continuity errors : sum local = 0.004132908851499446, global = -8.272648240155846e-05, cumulative = -0.007014455465781269
smoothSolver:  Solving for nuTilda, Initial residual = 0.03176355714176787, Final residual = 0.001828109929267188, No Iterations 3
ExecutionTime = 543.67 s  ClockTime = 545 s

Time = 24

velocityDampingConstraint velocityDamping damped 1 (0%) of cells, with max limit 300
smoothSolver:  Solving for Ux, Initial residual = 0.008534884285332486, Final residual = 0.0007410625634319983, No Iterations 4
smoothSolver:  Solving for Uy, Initial residual = 0.02348068340362543, Final residual = 0.002020564391463427, No Iterations 4
smoothSolver:  Solving for Uz, Initial residual = 0.02382940821001716, Final residual = 0.002006575805885253, No Iterations 4
[OGL LOG][Proc: 0]: global_index_init: 0.021 [ms]
[OGL LOG][Proc: 0]p_local_coeffs: call_update: 0 [ms]
[OGL LOG][Proc: 0]p_non_local_coeffs: call_update: 0 [ms]
[OGL LOG][Proc: 0]p: update_local_matrix_data: 140.106 [ms]
[OGL LOG][Proc: 0]p: update_non_local_matrix_data: 0.605 [ms]
[OGL LOG][Proc: 0]p_matrix: call_update: 4.035 [ms]
[OGL LOG][Proc: 0]p_rhs: call_update: 4.151 [ms]
[OGL LOG][Preconditioner.H:346] Generate preconditioner Multigrid MaxLevels 9 MinCoarseRows 10 ZeroGuess 1 Cycle v
[OGL LOG][Proc: 0]p: init_precond: 755.261 [ms]
[OGL LOG][StoppingCriterion.H:239] Creating stopping criterion with minIter 44 frequency 1
[OGL LOG][Proc: 0]p: generate_solver: 0.01 [ms]
[OGL LOG][Proc: 0]p: solve: 1049.249 [ms]
[OGL LOG][Proc: 0]p: copy_x_back: 10.173 [ms]
[OGL LOG][lduLduBase.H:330] 
Statistics:
	Time per iteration: 23316 [mu s]
	Time per residual norm calculation: 1301.000000 [mu s]
	Time per iteration and DOF: 0.924191 [ns]
	Retrieve results bandwidth 2.483000 [GByte/s]
[OGL LOG][Proc: 0]p: solve_multi_gpu: 1863.417 [ms]
MultigridcudaGKOCG:  Solving for p, Initial residual = 0.2827166340418812, Final residual = 0.0009630161128698331, No Iterations 45
time step continuity errors : sum local = 0.001303064835543997, global = -3.00410336277576e-05, cumulative = -0.007044496499409026
smoothSolver:  Solving for nuTilda, Initial residual = 0.01877822674795725, Final residual = 0.00109260331932468, No Iterations 4
ExecutionTime = 560.01 s  ClockTime = 562 s

Time = 25

velocityDampingConstraint velocityDamping damped 0 (0%) of cells, with max limit 300
smoothSolver:  Solving for Ux, Initial residual = 0.008731156762588406, Final residual = 0.0007819852696986478, No Iterations 4
smoothSolver:  Solving for Uy, Initial residual = 0.0231657494357776, Final residual = 0.002048809437775593, No Iterations 4
smoothSolver:  Solving for Uz, Initial residual = 0.0231858410257369, Final residual = 0.001997544248353747, No Iterations 4
[OGL LOG][Proc: 0]: global_index_init: 0.019 [ms]
[OGL LOG][Proc: 0]p_local_coeffs: call_update: 0 [ms]
[OGL LOG][Proc: 0]p_non_local_coeffs: call_update: 0 [ms]
[OGL LOG][Proc: 0]p: update_local_matrix_data: 143.112 [ms]
[OGL LOG][Proc: 0]p: update_non_local_matrix_data: 0.57 [ms]
[OGL LOG][Proc: 0]p_matrix: call_update: 4.194 [ms]
[OGL LOG][Proc: 0]p_rhs: call_update: 4.156 [ms]
[OGL LOG][Preconditioner.H:346] Generate preconditioner Multigrid MaxLevels 9 MinCoarseRows 10 ZeroGuess 1 Cycle v
[OGL LOG][Proc: 0]p: init_precond: 743.904 [ms]
[OGL LOG][StoppingCriterion.H:239] Creating stopping criterion with minIter 27 frequency 1
[OGL LOG][Proc: 0]p: generate_solver: 0.01 [ms]
[OGL LOG][Proc: 0]p: solve: 1374.004 [ms]
[OGL LOG][Proc: 0]p: copy_x_back: 10.222 [ms]
[OGL LOG][lduLduBase.H:330] 
Statistics:
	Time per iteration: 23288 [mu s]
	Time per residual norm calculation: 1301.000000 [mu s]
	Time per iteration and DOF: 0.923081 [ns]
	Retrieve results bandwidth 2.471000 [GByte/s]
[OGL LOG][Proc: 0]p: solve_multi_gpu: 2172.408 [ms]
MultigridcudaGKOCG:  Solving for p, Initial residual = 0.3178844318684366, Final residual = 0.003133331277120959, No Iterations 59
time step continuity errors : sum local = 0.003394026087541419, global = 9.357542159127586e-05, cumulative = -0.00695092107781775
smoothSolver:  Solving for nuTilda, Initial residual = 0.0318257419767713, Final residual = 0.001749305469777519, No Iterations 3
ExecutionTime = 576.5 s  ClockTime = 578 s

Time = 26

velocityDampingConstraint velocityDamping damped 0 (0%) of cells, with max limit 300
smoothSolver:  Solving for Ux, Initial residual = 0.008323377060130113, Final residual = 0.0007557708717298905, No Iterations 4
smoothSolver:  Solving for Uy, Initial residual = 0.02104103051098037, Final residual = 0.001923315883191154, No Iterations 4
smoothSolver:  Solving for Uz, Initial residual = 0.02115400508581427, Final residual = 0.001866480340568131, No Iterations 4
[OGL LOG][Proc: 0]: global_index_init: 0.018 [ms]
[OGL LOG][Proc: 0]p_local_coeffs: call_update: 0 [ms]
[OGL LOG][Proc: 0]p_non_local_coeffs: call_update: 0 [ms]
[OGL LOG][Proc: 0]p: update_local_matrix_data: 140.544 [ms]
[OGL LOG][Proc: 0]p: update_non_local_matrix_data: 0.659 [ms]
[OGL LOG][Proc: 0]p_matrix: call_update: 4.797 [ms]
[OGL LOG][Proc: 0]p_rhs: call_update: 3.855 [ms]
[OGL LOG][Preconditioner.H:346] Generate preconditioner Multigrid MaxLevels 9 MinCoarseRows 10 ZeroGuess 1 Cycle v
[OGL LOG][Proc: 0]p: init_precond: 740.218 [ms]
[OGL LOG][StoppingCriterion.H:239] Creating stopping criterion with minIter 35 frequency 1
[OGL LOG][Proc: 0]p: generate_solver: 0.01 [ms]
[OGL LOG][Proc: 0]p: solve: 1610.33 [ms]
[OGL LOG][Proc: 0]p: copy_x_back: 10.548 [ms]
[OGL LOG][lduLduBase.H:330] 
Statistics:
	Time per iteration: 22365 [mu s]
	Time per residual norm calculation: 1300.000000 [mu s]
	Time per iteration and DOF: 0.886496 [ns]
	Retrieve results bandwidth 2.394000 [GByte/s]
[OGL LOG][Proc: 0]p: solve_multi_gpu: 2411.016 [ms]
MultigridcudaGKOCG:  Solving for p, Initial residual = 0.2466716538434515, Final residual = 0.002200610327094615, No Iterations 72
time step continuity errors : sum local = 0.002657626362984378, global = 7.522157006089918e-05, cumulative = -0.006875699507756851
smoothSolver:  Solving for nuTilda, Initial residual = 0.01741464821741481, Final residual = 0.00105384586227055, No Iterations 4
ExecutionTime = 593.3 s  ClockTime = 595 s

Time = 27

velocityDampingConstraint velocityDamping damped 0 (0%) of cells, with max limit 300
smoothSolver:  Solving for Ux, Initial residual = 0.007519516839812681, Final residual = 0.0006591301808659613, No Iterations 4
smoothSolver:  Solving for Uy, Initial residual = 0.01902335179658048, Final residual = 0.00173655416523584, No Iterations 4
smoothSolver:  Solving for Uz, Initial residual = 0.01943971063306916, Final residual = 0.001694988550938504, No Iterations 4
[OGL LOG][Proc: 0]: global_index_init: 0.017 [ms]
[OGL LOG][Proc: 0]p_local_coeffs: call_update: 0 [ms]
[OGL LOG][Proc: 0]p_non_local_coeffs: call_update: 0 [ms]
[OGL LOG][Proc: 0]p: update_local_matrix_data: 141.432 [ms]
[OGL LOG][Proc: 0]p: update_non_local_matrix_data: 0.587 [ms]
[OGL LOG][Proc: 0]p_matrix: call_update: 4.399 [ms]
[OGL LOG][Proc: 0]p_rhs: call_update: 4.09 [ms]
[OGL LOG][Preconditioner.H:346] Generate preconditioner Multigrid MaxLevels 9 MinCoarseRows 10 ZeroGuess 1 Cycle v
[OGL LOG][Proc: 0]p: init_precond: 755.434 [ms]
[OGL LOG][StoppingCriterion.H:239] Creating stopping criterion with minIter 43 frequency 1
[OGL LOG][Proc: 0]p: generate_solver: 0.01 [ms]
[OGL LOG][Proc: 0]p: solve: 1035.543 [ms]
[OGL LOG][Proc: 0]p: copy_x_back: 10.081 [ms]
[OGL LOG][lduLduBase.H:330] 
Statistics:
	Time per iteration: 23535 [mu s]
	Time per residual norm calculation: 1300.000000 [mu s]
	Time per iteration and DOF: 0.932872 [ns]
	Retrieve results bandwidth 2.505000 [GByte/s]
[OGL LOG][Proc: 0]p: solve_multi_gpu: 1845.527 [ms]
MultigridcudaGKOCG:  Solving for p, Initial residual = 0.1861868521442743, Final residual = 0.0006462090371365936, No Iterations 44
time step continuity errors : sum local = 0.0009108098707273847, global = -0.0001048808576413939, cumulative = -0.006980580365398245
smoothSolver:  Solving for nuTilda, Initial residual = 0.03071941977873004, Final residual = 0.001679200830406192, No Iterations 3
ExecutionTime = 609.3200000000001 s  ClockTime = 611 s

Time = 28

velocityDampingConstraint velocityDamping damped 0 (0%) of cells, with max limit 300
smoothSolver:  Solving for Ux, Initial residual = 0.006905662212998797, Final residual = 0.0005939427432791801, No Iterations 4
smoothSolver:  Solving for Uy, Initial residual = 0.01886931209523427, Final residual = 0.001695789672356101, No Iterations 4
smoothSolver:  Solving for Uz, Initial residual = 0.01938632015674227, Final residual = 0.001674700656824693, No Iterations 4
[OGL LOG][Proc: 0]: global_index_init: 0.015 [ms]
[OGL LOG][Proc: 0]p_local_coeffs: call_update: 0 [ms]
[OGL LOG][Proc: 0]p_non_local_coeffs: call_update: 0 [ms]
[OGL LOG][Proc: 0]p: update_local_matrix_data: 139.743 [ms]
[OGL LOG][Proc: 0]p: update_non_local_matrix_data: 0.505 [ms]
[OGL LOG][Proc: 0]p_matrix: call_update: 4.369 [ms]
[OGL LOG][Proc: 0]p_rhs: call_update: 6.168 [ms]
[OGL LOG][Preconditioner.H:346] Generate preconditioner Multigrid MaxLevels 9 MinCoarseRows 10 ZeroGuess 1 Cycle v
[OGL LOG][Proc: 0]p: init_precond: 751.1079999999999 [ms]
[OGL LOG][StoppingCriterion.H:239] Creating stopping criterion with minIter 26 frequency 1
[OGL LOG][Proc: 0]p: generate_solver: 0.008999999999999999 [ms]
[OGL LOG][Proc: 0]p: solve: 1379.881 [ms]
[OGL LOG][Proc: 0]p: copy_x_back: 10.45 [ms]
[OGL LOG][lduLduBase.H:330] 
Statistics:
	Time per iteration: 22998 [mu s]
	Time per residual norm calculation: 1143.000000 [mu s]
	Time per iteration and DOF: 0.911586 [ns]
	Retrieve results bandwidth 2.417000 [GByte/s]
[OGL LOG][Proc: 0]p: solve_multi_gpu: 2195.495 [ms]
MultigridcudaGKOCG:  Solving for p, Initial residual = 0.1913183976836675, Final residual = 0.00165965181250656, No Iterations 60
time step continuity errors : sum local = 0.002056015922906672, global = 1.778212293745556e-05, cumulative = -0.006962798242460789
smoothSolver:  Solving for nuTilda, Initial residual = 0.01608338430229863, Final residual = 0.001011013202895246, No Iterations 4
ExecutionTime = 625.64 s  ClockTime = 628 s

Time = 29

velocityDampingConstraint velocityDamping damped 0 (0%) of cells, with max limit 300
smoothSolver:  Solving for Ux, Initial residual = 0.006583375183676455, Final residual = 0.0005707873914791009, No Iterations 4
smoothSolver:  Solving for Uy, Initial residual = 0.01878831969113733, Final residual = 0.00169641441564733, No Iterations 4
smoothSolver:  Solving for Uz, Initial residual = 0.01910286410323158, Final residual = 0.001661938105555471, No Iterations 4
[OGL LOG][Proc: 0]: global_index_init: 0.022 [ms]
[OGL LOG][Proc: 0]p_local_coeffs: call_update: 0 [ms]
[OGL LOG][Proc: 0]p_non_local_coeffs: call_update: 0 [ms]
[OGL LOG][Proc: 0]p: update_local_matrix_data: 138.805 [ms]
[OGL LOG][Proc: 0]p: update_non_local_matrix_data: 0.55 [ms]
[OGL LOG][Proc: 0]p_matrix: call_update: 4.142 [ms]
[OGL LOG][Proc: 0]p_rhs: call_update: 5.139 [ms]
[OGL LOG][Preconditioner.H:346] Generate preconditioner Multigrid MaxLevels 9 MinCoarseRows 10 ZeroGuess 1 Cycle v
[OGL LOG][Proc: 0]p: init_precond: 728.1420000000001 [ms]
[OGL LOG][StoppingCriterion.H:239] Creating stopping criterion with minIter 36 frequency 1
[OGL LOG][Proc: 0]p: generate_solver: 0.014 [ms]
[OGL LOG][Proc: 0]p: solve: 1639.947 [ms]
[OGL LOG][Proc: 0]p: copy_x_back: 13.55 [ms]
[OGL LOG][lduLduBase.H:330] 
Statistics:
	Time per iteration: 22777 [mu s]
	Time per residual norm calculation: 1445.000000 [mu s]
	Time per iteration and DOF: 0.902827 [ns]
	Retrieve results bandwidth 1.864000 [GByte/s]
[OGL LOG][Proc: 0]p: solve_multi_gpu: 2430.44 [ms]
MultigridcudaGKOCG:  Solving for p, Initial residual = 0.2531734387275676, Final residual = 0.002433684540038336, No Iterations 72
time step continuity errors : sum local = 0.002064703183414621, global = -5.858112641708627e-05, cumulative = -0.007021379368877876
smoothSolver:  Solving for nuTilda, Initial residual = 0.02864355562442026, Final residual = 0.00161069465845025, No Iterations 3
ExecutionTime = 642.03 s  ClockTime = 644 s

Time = 30

velocityDampingConstraint velocityDamping damped 0 (0%) of cells, with max limit 300
smoothSolver:  Solving for Ux, Initial residual = 0.006409252145684657, Final residual = 0.0005675572994828861, No Iterations 4
smoothSolver:  Solving for Uy, Initial residual = 0.01850046068544876, Final residual = 0.001674894847182336, No Iterations 4
smoothSolver:  Solving for Uz, Initial residual = 0.0185370623719768, Final residual = 0.001611454400391139, No Iterations 4
[OGL LOG][Proc: 0]: global_index_init: 0.015 [ms]
[OGL LOG][Proc: 0]p_local_coeffs: call_update: 0 [ms]
[OGL LOG][Proc: 0]p_non_local_coeffs: call_update: 0 [ms]
[OGL LOG][Proc: 0]p: update_local_matrix_data: 143.985 [ms]
[OGL LOG][Proc: 0]p: update_non_local_matrix_data: 0.617 [ms]
[OGL LOG][Proc: 0]p_matrix: call_update: 5.839 [ms]
[OGL LOG][Proc: 0]p_rhs: call_update: 5.941 [ms]
[OGL LOG][Preconditioner.H:346] Generate preconditioner Multigrid MaxLevels 9 MinCoarseRows 10 ZeroGuess 1 Cycle v
[OGL LOG][Proc: 0]p: init_precond: 772.075 [ms]
[OGL LOG][StoppingCriterion.H:239] Creating stopping criterion with minIter 43 frequency 1
[OGL LOG][Proc: 0]p: generate_solver: 0.01 [ms]
[OGL LOG][Proc: 0]p: solve: 981.032 [ms]
[OGL LOG][Proc: 0]p: copy_x_back: 10.147 [ms]
[OGL LOG][lduLduBase.H:330] 
Statistics:
	Time per iteration: 22296 [mu s]
	Time per residual norm calculation: 1447.000000 [mu s]
	Time per iteration and DOF: 0.883761 [ns]
	Retrieve results bandwidth 2.489000 [GByte/s]
[OGL LOG][Proc: 0]p: solve_multi_gpu: 1813.731 [ms]
MultigridcudaGKOCG:  Solving for p, Initial residual = 0.2743918844453209, Final residual = 0.001708436798820517, No Iterations 44
time step continuity errors : sum local = 0.001208512549266438, global = 0.0001855818038086299, cumulative = -0.006835797565069246
smoothSolver:  Solving for nuTilda, Initial residual = 0.01491378351638475, Final residual = 0.0009678077024456146, No Iterations 4
ExecutionTime = 658.2 s  ClockTime = 660 s

Time = 31

velocityDampingConstraint velocityDamping damped 0 (0%) of cells, with max limit 300
smoothSolver:  Solving for Ux, Initial residual = 0.006401395793330393, Final residual = 0.000566221656184348, No Iterations 4
smoothSolver:  Solving for Uy, Initial residual = 0.01786038237173962, Final residual = 0.001631820510500966, No Iterations 4
smoothSolver:  Solving for Uz, Initial residual = 0.01795817354332842, Final residual = 0.001582852313699855, No Iterations 4
[OGL LOG][Proc: 0]: global_index_init: 0.112 [ms]
[OGL LOG][Proc: 0]p_local_coeffs: call_update: 0 [ms]
[OGL LOG][Proc: 0]p_non_local_coeffs: call_update: 0 [ms]
[OGL LOG][Proc: 0]p: update_local_matrix_data: 138.61 [ms]
[OGL LOG][Proc: 0]p: update_non_local_matrix_data: 0.571 [ms]
[OGL LOG][Proc: 0]p_matrix: call_update: 4.267 [ms]
[OGL LOG][Proc: 0]p_rhs: call_update: 3.836 [ms]
[OGL LOG][Preconditioner.H:346] Generate preconditioner Multigrid MaxLevels 9 MinCoarseRows 10 ZeroGuess 1 Cycle v
[OGL LOG][Proc: 0]p: init_precond: 746.427 [ms]
[OGL LOG][StoppingCriterion.H:239] Creating stopping criterion with minIter 26 frequency 1
[OGL LOG][Proc: 0]p: generate_solver: 0.008999999999999999 [ms]
[OGL LOG][Proc: 0]p: solve: 1337.858 [ms]
[OGL LOG][Proc: 0]p: copy_x_back: 10.14 [ms]
[OGL LOG][lduLduBase.H:330] 
Statistics:
	Time per iteration: 23066 [mu s]
	Time per residual norm calculation: 1304.000000 [mu s]
	Time per iteration and DOF: 0.914282 [ns]
	Retrieve results bandwidth 2.491000 [GByte/s]
[OGL LOG][Proc: 0]p: solve_multi_gpu: 2140.129 [ms]
MultigridcudaGKOCG:  Solving for p, Initial residual = 0.2339484800848156, Final residual = 0.002217921587171187, No Iterations 58
time step continuity errors : sum local = 0.001671099996429652, global = 1.85487692442395e-06, cumulative = -0.006833942688144822
smoothSolver:  Solving for nuTilda, Initial residual = 0.0267116323472879, Final residual = 0.001547912333726794, No Iterations 3
ExecutionTime = 674.53 s  ClockTime = 677 s

Time = 32

velocityDampingConstraint velocityDamping damped 0 (0%) of cells, with max limit 300
smoothSolver:  Solving for Ux, Initial residual = 0.00614490510427715, Final residual = 0.0005465521912726455, No Iterations 4
smoothSolver:  Solving for Uy, Initial residual = 0.01690567560749299, Final residual = 0.001553448221326478, No Iterations 4
smoothSolver:  Solving for Uz, Initial residual = 0.01705614579904165, Final residual = 0.001534142544613703, No Iterations 4
[OGL LOG][Proc: 0]: global_index_init: 0.016 [ms]
[OGL LOG][Proc: 0]p_local_coeffs: call_update: 0 [ms]
[OGL LOG][Proc: 0]p_non_local_coeffs: call_update: 0 [ms]
[OGL LOG][Proc: 0]p: update_local_matrix_data: 140.081 [ms]
[OGL LOG][Proc: 0]p: update_non_local_matrix_data: 0.606 [ms]
[OGL LOG][Proc: 0]p_matrix: call_update: 3.92 [ms]
[OGL LOG][Proc: 0]p_rhs: call_update: 4.132 [ms]
[OGL LOG][Preconditioner.H:346] Generate preconditioner Multigrid MaxLevels 9 MinCoarseRows 10 ZeroGuess 1 Cycle v
[OGL LOG][Proc: 0]p: init_precond: 797.965 [ms]
[OGL LOG][StoppingCriterion.H:239] Creating stopping criterion with minIter 34 frequency 1
[OGL LOG][Proc: 0]p: generate_solver: 0.008999999999999999 [ms]
[OGL LOG][Proc: 0]p: solve: 1410.849 [ms]
[OGL LOG][Proc: 0]p: copy_x_back: 10.261 [ms]
[OGL LOG][lduLduBase.H:330] 
Statistics:
	Time per iteration: 22044 [mu s]
	Time per residual norm calculation: 1299.000000 [mu s]
	Time per iteration and DOF: 0.873772 [ns]
	Retrieve results bandwidth 2.461000 [GByte/s]
[OGL LOG][Proc: 0]p: solve_multi_gpu: 2263.97 [ms]
MultigridcudaGKOCG:  Solving for p, Initial residual = 0.1581476631665352, Final residual = 0.001571798163044251, No Iterations 64
time step continuity errors : sum local = 0.001589667933608927, global = 0.0001238277182402737, cumulative = -0.006710114969904549
smoothSolver:  Solving for nuTilda, Initial residual = 0.01392806798628397, Final residual = 0.0009288070031830682, No Iterations 4
ExecutionTime = 691.01 s  ClockTime = 693 s

Time = 33

velocityDampingConstraint velocityDamping damped 0 (0%) of cells, with max limit 300
smoothSolver:  Solving for Ux, Initial residual = 0.005819726503261836, Final residual = 0.0005112217865578687, No Iterations 4
smoothSolver:  Solving for Uy, Initial residual = 0.01630751312526891, Final residual = 0.001496000702038273, No Iterations 4
smoothSolver:  Solving for Uz, Initial residual = 0.01649880775030826, Final residual = 0.001489126216445367, No Iterations 4
[OGL LOG][Proc: 0]: global_index_init: 0.019 [ms]
[OGL LOG][Proc: 0]p_local_coeffs: call_update: 0 [ms]
[OGL LOG][Proc: 0]p_non_local_coeffs: call_update: 0 [ms]
[OGL LOG][Proc: 0]p: update_local_matrix_data: 137.076 [ms]
[OGL LOG][Proc: 0]p: update_non_local_matrix_data: 0.634 [ms]
[OGL LOG][Proc: 0]p_matrix: call_update: 4.254 [ms]
[OGL LOG][Proc: 0]p_rhs: call_update: 4.545 [ms]
[OGL LOG][Preconditioner.H:346] Generate preconditioner Multigrid MaxLevels 9 MinCoarseRows 10 ZeroGuess 1 Cycle v
[OGL LOG][Proc: 0]p: init_precond: 745.476 [ms]
[OGL LOG][StoppingCriterion.H:239] Creating stopping criterion with minIter 38 frequency 1
[OGL LOG][Proc: 0]p: generate_solver: 0.01 [ms]
[OGL LOG][Proc: 0]p: solve: 956.52 [ms]
[OGL LOG][Proc: 0]p: copy_x_back: 14.163 [ms]
[OGL LOG][lduLduBase.H:330] 
Statistics:
	Time per iteration: 24526 [mu s]
	Time per residual norm calculation: 1306.000000 [mu s]
	Time per iteration and DOF: 0.972153 [ns]
	Retrieve results bandwidth 1.783000 [GByte/s]
[OGL LOG][Proc: 0]p: solve_multi_gpu: 1765.875 [ms]
MultigridcudaGKOCG:  Solving for p, Initial residual = 0.1460350668301275, Final residual = 0.00123905062270543, No Iterations 39
time step continuity errors : sum local = 0.001247210139456608, global = -0.0001837653974371164, cumulative = -0.006893880367341666
smoothSolver:  Solving for nuTilda, Initial residual = 0.025023713758447, Final residual = 0.001490245668143916, No Iterations 3
ExecutionTime = 706.99 s  ClockTime = 709 s

Time = 34

velocityDampingConstraint velocityDamping damped 0 (0%) of cells, with max limit 300
smoothSolver:  Solving for Ux, Initial residual = 0.005508338291805949, Final residual = 0.0004856610344389076, No Iterations 4
smoothSolver:  Solving for Uy, Initial residual = 0.01618344484314773, Final residual = 0.001488492126580314, No Iterations 4
smoothSolver:  Solving for Uz, Initial residual = 0.01636829622515812, Final residual = 0.001480269647621387, No Iterations 4
[OGL LOG][Proc: 0]: global_index_init: 0.017 [ms]
[OGL LOG][Proc: 0]p_local_coeffs: call_update: 0 [ms]
[OGL LOG][Proc: 0]p_non_local_coeffs: call_update: 0 [ms]
[OGL LOG][Proc: 0]p: update_local_matrix_data: 140.188 [ms]
[OGL LOG][Proc: 0]p: update_non_local_matrix_data: 0.547 [ms]
[OGL LOG][Proc: 0]p_matrix: call_update: 4.307 [ms]
[OGL LOG][Proc: 0]p_rhs: call_update: 3.816 [ms]
[OGL LOG][Preconditioner.H:346] Generate preconditioner Multigrid MaxLevels 9 MinCoarseRows 10 ZeroGuess 1 Cycle v
[OGL LOG][Proc: 0]p: init_precond: 748.321 [ms]
[OGL LOG][StoppingCriterion.H:239] Creating stopping criterion with minIter 23 frequency 1
[OGL LOG][Proc: 0]p: generate_solver: 0.008999999999999999 [ms]
[OGL LOG][Proc: 0]p: solve: 1324.939 [ms]
[...]
ExecutionTime = 1611.92 s  ClockTime = 1616 s

Time = 91

velocityDampingConstraint velocityDamping damped 0 (0%) of cells, with max limit 300
smoothSolver:  Solving for Ux, Initial residual = 0.002882329002225452, Final residual = 0.0002813301439299696, No Iterations 4
smoothSolver:  Solving for Uy, Initial residual = 0.01225445523660303, Final residual = 0.001211178008695636, No Iterations 4
smoothSolver:  Solving for Uz, Initial residual = 0.01346787162289931, Final residual = 0.001342498416776511, No Iterations 4
[OGL LOG][Proc: 0]: global_index_init: 0.022 [ms]
[OGL LOG][Proc: 0]p_local_coeffs: call_update: 0 [ms]
[OGL LOG][Proc: 0]p_non_local_coeffs: call_update: 0 [ms]
[OGL LOG][Proc: 0]p: update_local_matrix_data: 137.979 [ms]
[OGL LOG][Proc: 0]p: update_non_local_matrix_data: 0.611 [ms]
[OGL LOG][Proc: 0]p_matrix: call_update: 4.773 [ms]
[OGL LOG][Proc: 0]p_rhs: call_update: 3.639 [ms]
[OGL LOG][Preconditioner.H:346] Generate preconditioner Multigrid MaxLevels 9 MinCoarseRows 10 ZeroGuess 1 Cycle v
[OGL LOG][Proc: 0]p: init_precond: 742.933 [ms]
[OGL LOG][StoppingCriterion.H:239] Creating stopping criterion with minIter 15 frequency 1
[OGL LOG][Proc: 0]p: generate_solver: 0.008999999999999999 [ms]
[OGL LOG][Proc: 0]p: solve: 1273.593 [ms]
[OGL LOG][Proc: 0]p: copy_x_back: 10.137 [ms]
[OGL LOG][lduLduBase.H:330] 
Statistics:
	Time per iteration: 24030 [mu s]
	Time per residual norm calculation: 1306.000000 [mu s]
	Time per iteration and DOF: 0.952493 [ns]
	Retrieve results bandwidth 2.491000 [GByte/s]
[OGL LOG][Proc: 0]p: solve_multi_gpu: 2079.128 [ms]
MultigridcudaGKOCG:  Solving for p, Initial residual = 0.0470451640907556, Final residual = 0.0004688947312382351, No Iterations 53
time step continuity errors : sum local = 0.000356289953064859, global = -1.340841867589901e-05, cumulative = -0.006826195861743187
smoothSolver:  Solving for nuTilda, Initial residual = 0.009533172035102379, Final residual = 0.0008403671546746188, No Iterations 3
ExecutionTime = 1628.29 s  ClockTime = 1633 s

Time = 92

velocityDampingConstraint velocityDamping damped 0 (0%) of cells, with max limit 300
smoothSolver:  Solving for Ux, Initial residual = 0.002858970176926108, Final residual = 0.0002811353662412512, No Iterations 4
smoothSolver:  Solving for Uy, Initial residual = 0.0123200910539567, Final residual = 0.001217059891539233, No Iterations 4
smoothSolver:  Solving for Uz, Initial residual = 0.01347429701344927, Final residual = 0.001345262435122983, No Iterations 4
[OGL LOG][Proc: 0]: global_index_init: 0.016 [ms]
[OGL LOG][Proc: 0]p_local_coeffs: call_update: 0 [ms]
[OGL LOG][Proc: 0]p_non_local_coeffs: call_update: 0 [ms]
[OGL LOG][Proc: 0]p: update_local_matrix_data: 140.748 [ms]
[OGL LOG][Proc: 0]p: update_non_local_matrix_data: 0.6889999999999999 [ms]
[OGL LOG][Proc: 0]p_matrix: call_update: 4.199 [ms]
[OGL LOG][Proc: 0]p_rhs: call_update: 3.78 [ms]
[OGL LOG][Preconditioner.H:346] Generate preconditioner Multigrid MaxLevels 9 MinCoarseRows 10 ZeroGuess 1 Cycle v
[OGL LOG][Proc: 0]p: init_precond: 773.635 [ms]
[OGL LOG][StoppingCriterion.H:239] Creating stopping criterion with minIter 31 frequency 1
[OGL LOG][Proc: 0]p: generate_solver: 0.008999999999999999 [ms]
[OGL LOG][Proc: 0]p: solve: 872.043 [ms]
[OGL LOG][Proc: 0]p: copy_x_back: 10.593 [ms]
[OGL LOG][lduLduBase.H:330] 
Statistics:
	Time per iteration: 27251 [mu s]
	Time per residual norm calculation: 1157.000000 [mu s]
	Time per iteration and DOF: 1.080165 [ns]
	Retrieve results bandwidth 2.384000 [GByte/s]
[OGL LOG][Proc: 0]p: solve_multi_gpu: 1701.486 [ms]
MultigridcudaGKOCG:  Solving for p, Initial residual = 0.04923804125513381, Final residual = 0.0003384852186015068, No Iterations 32
time step continuity errors : sum local = 0.0002436578237535317, global = -2.251917959764814e-05, cumulative = -0.006848715041340835
smoothSolver:  Solving for nuTilda, Initial residual = 0.006426223622336361, Final residual = 0.0004836220692881811, No Iterations 4
ExecutionTime = 1644.19 s  ClockTime = 1649 s

Time = 93

velocityDampingConstraint velocityDamping damped 0 (0%) of cells, with max limit 300
smoothSolver:  Solving for Ux, Initial residual = 0.002874105395135476, Final residual = 0.0002813958012148861, No Iterations 4
smoothSolver:  Solving for Uy, Initial residual = 0.01230642855743569, Final residual = 0.001219514188126464, No Iterations 4
smoothSolver:  Solving for Uz, Initial residual = 0.01345591648465907, Final residual = 0.0008038635739783122, No Iterations 5
[OGL LOG][Proc: 0]: global_index_init: 0.015 [ms]
[OGL LOG][Proc: 0]p_local_coeffs: call_update: 0 [ms]
[OGL LOG][Proc: 0]p_non_local_coeffs: call_update: 0 [ms]
[OGL LOG][Proc: 0]p: update_local_matrix_data: 138.631 [ms]
[OGL LOG][Proc: 0]p: update_non_local_matrix_data: 0.607 [ms]
[OGL LOG][Proc: 0]p_matrix: call_update: 4.445 [ms]
[OGL LOG][Proc: 0]p_rhs: call_update: 3.587 [ms]
[OGL LOG][Preconditioner.H:346] Generate preconditioner Multigrid MaxLevels 9 MinCoarseRows 10 ZeroGuess 1 Cycle v
[OGL LOG][Proc: 0]p: init_precond: 734.728 [ms]
[OGL LOG][StoppingCriterion.H:239] Creating stopping criterion with minIter 19 frequency 1
[OGL LOG][Proc: 0]p: generate_solver: 0.01 [ms]
[OGL LOG][Proc: 0]p: solve: 620.351 [ms]
[OGL LOG][Proc: 0]p: copy_x_back: 10.262 [ms]
[OGL LOG][lduLduBase.H:330] 
Statistics:
	Time per iteration: 31017 [mu s]
	Time per residual norm calculation: 1303.000000 [mu s]
	Time per iteration and DOF: 1.229441 [ns]
	Retrieve results bandwidth 2.461000 [GByte/s]
[OGL LOG][Proc: 0]p: solve_multi_gpu: 1414.621 [ms]
MultigridcudaGKOCG:  Solving for p, Initial residual = 0.04932174953690525, Final residual = 0.0004369526416727358, No Iterations 20
time step continuity errors : sum local = 0.0003139462379535816, global = 4.645422852174437e-05, cumulative = -0.006802260812819091
smoothSolver:  Solving for nuTilda, Initial residual = 0.009326240019870233, Final residual = 0.0008428419327036513, No Iterations 3
ExecutionTime = 1659.71 s  ClockTime = 1664 s

Time = 94

velocityDampingConstraint velocityDamping damped 0 (0%) of cells, with max limit 300
smoothSolver:  Solving for Ux, Initial residual = 0.002855804630591046, Final residual = 0.0002812172732611113, No Iterations 4
smoothSolver:  Solving for Uy, Initial residual = 0.01232754789945677, Final residual = 0.001225255070375093, No Iterations 4
smoothSolver:  Solving for Uz, Initial residual = 0.01334307539555589, Final residual = 0.00133170576089815, No Iterations 4
[OGL LOG][Proc: 0]: global_index_init: 0.018 [ms]
[OGL LOG][Proc: 0]p_local_coeffs: call_update: 0 [ms]
[OGL LOG][Proc: 0]p_non_local_coeffs: call_update: 0 [ms]
[OGL LOG][Proc: 0]p: update_local_matrix_data: 142.595 [ms]
[OGL LOG][Proc: 0]p: update_non_local_matrix_data: 0.639 [ms]
[OGL LOG][Proc: 0]p_matrix: call_update: 2.722 [ms]
[OGL LOG][Proc: 0]p_rhs: call_update: 8.385999999999999 [ms]
[OGL LOG][Preconditioner.H:346] Generate preconditioner Multigrid MaxLevels 9 MinCoarseRows 10 ZeroGuess 1 Cycle v
[OGL LOG][Proc: 0]p: init_precond: 785.641 [ms]
[OGL LOG][StoppingCriterion.H:239] Creating stopping criterion with minIter 12 frequency 1
[OGL LOG][Proc: 0]p: generate_solver: 0.01 [ms]
[OGL LOG][Proc: 0]p: solve: 1327.944 [ms]
[OGL LOG][Proc: 0]p: copy_x_back: 10.073 [ms]
[OGL LOG][lduLduBase.H:330] 
Statistics:
	Time per iteration: 23297 [mu s]
	Time per residual norm calculation: 1294.000000 [mu s]
	Time per iteration and DOF: 0.923438 [ns]
	Retrieve results bandwidth 2.507000 [GByte/s]
[OGL LOG][Proc: 0]p: solve_multi_gpu: 2170.49 [ms]
MultigridcudaGKOCG:  Solving for p, Initial residual = 0.04864092113659956, Final residual = 0.0004791233374864006, No Iterations 57
time step continuity errors : sum local = 0.0003430049016248202, global = 1.39309033457519e-05, cumulative = -0.006788329909473339
smoothSolver:  Solving for nuTilda, Initial residual = 0.006363039806621187, Final residual = 0.0004850841233063337, No Iterations 4
ExecutionTime = 1675.9 s  ClockTime = 1681 s

Time = 95

velocityDampingConstraint velocityDamping damped 0 (0%) of cells, with max limit 300
smoothSolver:  Solving for Ux, Initial residual = 0.002850296116710908, Final residual = 0.0002798842887713096, No Iterations 4
smoothSolver:  Solving for Uy, Initial residual = 0.01233679335314127, Final residual = 0.001228700890160044, No Iterations 4
smoothSolver:  Solving for Uz, Initial residual = 0.013341376257516, Final residual = 0.001333961129424941, No Iterations 4
[OGL LOG][Proc: 0]: global_index_init: 0.017 [ms]
[OGL LOG][Proc: 0]p_local_coeffs: call_update: 0 [ms]
[OGL LOG][Proc: 0]p_non_local_coeffs: call_update: 0 [ms]
[OGL LOG][Proc: 0]p: update_local_matrix_data: 138.477 [ms]
[OGL LOG][Proc: 0]p: update_non_local_matrix_data: 0.584 [ms]
[OGL LOG][Proc: 0]p_matrix: call_update: 4.473 [ms]
[OGL LOG][Proc: 0]p_rhs: call_update: 3.467 [ms]
[OGL LOG][Preconditioner.H:346] Generate preconditioner Multigrid MaxLevels 9 MinCoarseRows 10 ZeroGuess 1 Cycle v
[OGL LOG][Proc: 0]p: init_precond: 743.749 [ms]
[OGL LOG][StoppingCriterion.H:239] Creating stopping criterion with minIter 34 frequency 1
[OGL LOG][Proc: 0]p: generate_solver: 0.008999999999999999 [ms]
[OGL LOG][Proc: 0]p: solve: 900.872 [ms]
[OGL LOG][Proc: 0]p: copy_x_back: 10.026 [ms]
[OGL LOG][lduLduBase.H:330] 
Statistics:
	Time per iteration: 25739 [mu s]
	Time per residual norm calculation: 1302.000000 [mu s]
	Time per iteration and DOF: 1.020233 [ns]
	Retrieve results bandwidth 2.519000 [GByte/s]
[OGL LOG][Proc: 0]p: solve_multi_gpu: 1698.087 [ms]
MultigridcudaGKOCG:  Solving for p, Initial residual = 0.04531868804442941, Final residual = 0.0002454701079041224, No Iterations 35
time step continuity errors : sum local = 0.0001850580188964008, global = 2.387383867980488e-05, cumulative = -0.006764456070793534
smoothSolver:  Solving for nuTilda, Initial residual = 0.009126646686504482, Final residual = 0.0008444537520394331, No Iterations 3
ExecutionTime = 1691.88 s  ClockTime = 1697 s

Time = 96

velocityDampingConstraint velocityDamping damped 0 (0%) of cells, with max limit 300
smoothSolver:  Solving for Ux, Initial residual = 0.002809406389331958, Final residual = 0.0002776409394042273, No Iterations 4
smoothSolver:  Solving for Uy, Initial residual = 0.01231394653266362, Final residual = 0.001228941432192909, No Iterations 4
smoothSolver:  Solving for Uz, Initial residual = 0.0134007734662192, Final residual = 0.0007999147556819491, No Iterations 5
[OGL LOG][Proc: 0]: global_index_init: 0.017 [ms]
[OGL LOG][Proc: 0]p_local_coeffs: call_update: 0 [ms]
[OGL LOG][Proc: 0]p_non_local_coeffs: call_update: 0 [ms]
[OGL LOG][Proc: 0]p: update_local_matrix_data: 145.182 [ms]
[OGL LOG][Proc: 0]p: update_non_local_matrix_data: 0.587 [ms]
[OGL LOG][Proc: 0]p_matrix: call_update: 3.24 [ms]
[OGL LOG][Proc: 0]p_rhs: call_update: 4.697 [ms]
[OGL LOG][Preconditioner.H:346] Generate preconditioner Multigrid MaxLevels 9 MinCoarseRows 10 ZeroGuess 1 Cycle v
[OGL LOG][Proc: 0]p: init_precond: 756.2809999999999 [ms]
[OGL LOG][StoppingCriterion.H:239] Creating stopping criterion with minIter 21 frequency 1
[OGL LOG][Proc: 0]p: generate_solver: 0.008999999999999999 [ms]
[OGL LOG][Proc: 0]p: solve: 638.338 [ms]
[OGL LOG][Proc: 0]p: copy_x_back: 10.416 [ms]
[OGL LOG][lduLduBase.H:330] 
Statistics:
	Time per iteration: 27753 [mu s]
	Time per residual norm calculation: 1301.000000 [mu s]
	Time per iteration and DOF: 1.100063 [ns]
	Retrieve results bandwidth 2.425000 [GByte/s]
[OGL LOG][Proc: 0]p: solve_multi_gpu: 1449.515 [ms]
MultigridcudaGKOCG:  Solving for p, Initial residual = 0.04521118978715011, Final residual = 0.0004503784817922295, No Iterations 23
time step continuity errors : sum local = 0.0003388521568344933, global = -3.331764876734436e-05, cumulative = -0.006797773719560878
smoothSolver:  Solving for nuTilda, Initial residual = 0.006298499711905985, Final residual = 0.0004860615279541421, No Iterations 4
ExecutionTime = 1707.64 s  ClockTime = 1712 s

Time = 97

velocityDampingConstraint velocityDamping damped 0 (0%) of cells, with max limit 300
smoothSolver:  Solving for Ux, Initial residual = 0.00281354091321951, Final residual = 0.0002767127590011477, No Iterations 4
smoothSolver:  Solving for Uy, Initial residual = 0.01234577991617299, Final residual = 0.001233293249365036, No Iterations 4
smoothSolver:  Solving for Uz, Initial residual = 0.01330899341552783, Final residual = 0.001330623102218283, No Iterations 4
[OGL LOG][Proc: 0]: global_index_init: 0.023 [ms]
[OGL LOG][Proc: 0]p_local_coeffs: call_update: 0 [ms]
[OGL LOG][Proc: 0]p_non_local_coeffs: call_update: 0 [ms]
[OGL LOG][Proc: 0]p: update_local_matrix_data: 140.713 [ms]
[OGL LOG][Proc: 0]p: update_non_local_matrix_data: 0.5600000000000001 [ms]
[OGL LOG][Proc: 0]p_matrix: call_update: 4.82 [ms]
[OGL LOG][Proc: 0]p_rhs: call_update: 3.681 [ms]
[OGL LOG][Preconditioner.H:346] Generate preconditioner Multigrid MaxLevels 9 MinCoarseRows 10 ZeroGuess 1 Cycle v
[OGL LOG][Proc: 0]p: init_precond: 771.543 [ms]
[OGL LOG][StoppingCriterion.H:239] Creating stopping criterion with minIter 13 frequency 1
[OGL LOG][Proc: 0]p: generate_solver: 0.008999999999999999 [ms]
[OGL LOG][Proc: 0]p: solve: 1194.951 [ms]
[OGL LOG][Proc: 0]p: copy_x_back: 10.438 [ms]
[OGL LOG][lduLduBase.H:330] 
Statistics:
	Time per iteration: 23430 [mu s]
	Time per residual norm calculation: 1149.000000 [mu s]
	Time per iteration and DOF: 0.928710 [ns]
	Retrieve results bandwidth 2.420000 [GByte/s]
[OGL LOG][Proc: 0]p: solve_multi_gpu: 2022.744 [ms]
MultigridcudaGKOCG:  Solving for p, Initial residual = 0.04418895921919321, Final residual = 0.0004063659548216918, No Iterations 51
time step continuity errors : sum local = 0.0003054055841533992, global = -1.152375287770793e-05, cumulative = -0.006809297472438586
smoothSolver:  Solving for nuTilda, Initial residual = 0.008936856967121546, Final residual = 0.0008461635457943225, No Iterations 3
ExecutionTime = 1723.69 s  ClockTime = 1729 s

Time = 98

velocityDampingConstraint velocityDamping damped 0 (0%) of cells, with max limit 300
smoothSolver:  Solving for Ux, Initial residual = 0.002784288007623098, Final residual = 0.0002755013679478797, No Iterations 4
smoothSolver:  Solving for Uy, Initial residual = 0.01241935005254943, Final residual = 0.001239781495867253, No Iterations 4
smoothSolver:  Solving for Uz, Initial residual = 0.01332608520806808, Final residual = 0.0007935327264692592, No Iterations 5
[OGL LOG][Proc: 0]: global_index_init: 0.016 [ms]
[OGL LOG][Proc: 0]p_local_coeffs: call_update: 0 [ms]
[OGL LOG][Proc: 0]p_non_local_coeffs: call_update: 0 [ms]
[OGL LOG][Proc: 0]p: update_local_matrix_data: 135.373 [ms]
[OGL LOG][Proc: 0]p: update_non_local_matrix_data: 0.62 [ms]
[OGL LOG][Proc: 0]p_matrix: call_update: 3.89 [ms]
[OGL LOG][Proc: 0]p_rhs: call_update: 4.298 [ms]
[OGL LOG][Preconditioner.H:346] Generate preconditioner Multigrid MaxLevels 9 MinCoarseRows 10 ZeroGuess 1 Cycle v
[OGL LOG][Proc: 0]p: init_precond: 759.515 [ms]
[OGL LOG][StoppingCriterion.H:239] Creating stopping criterion with minIter 30 frequency 1
[OGL LOG][Proc: 0]p: generate_solver: 0.008999999999999999 [ms]
[OGL LOG][Proc: 0]p: solve: 788.362 [ms]
[OGL LOG][Proc: 0]p: copy_x_back: 10.283 [ms]
[OGL LOG][lduLduBase.H:330] 
Statistics:
	Time per iteration: 25431 [mu s]
	Time per residual norm calculation: 1158.000000 [mu s]
	Time per iteration and DOF: 1.008025 [ns]
	Retrieve results bandwidth 2.456000 [GByte/s]
[OGL LOG][Proc: 0]p: solve_multi_gpu: 1606.62 [ms]
MultigridcudaGKOCG:  Solving for p, Initial residual = 0.04604343780598966, Final residual = 0.0003838706391823568, No Iterations 31
time step continuity errors : sum local = 0.0002756898603132853, global = -3.215483780039736e-05, cumulative = -0.006841452310238983
smoothSolver:  Solving for nuTilda, Initial residual = 0.006234148786423338, Final residual = 0.0004870655208740761, No Iterations 4
ExecutionTime = 1739.43 s  ClockTime = 1744 s

Time = 99

velocityDampingConstraint velocityDamping damped 0 (0%) of cells, with max limit 300
smoothSolver:  Solving for Ux, Initial residual = 0.002796519129047194, Final residual = 0.0002751626240658407, No Iterations 4
smoothSolver:  Solving for Uy, Initial residual = 0.01244231992241457, Final residual = 0.0007438572491696553, No Iterations 5
smoothSolver:  Solving for Uz, Initial residual = 0.01324128532841061, Final residual = 0.001322696762094219, No Iterations 4
[OGL LOG][Proc: 0]: global_index_init: 0.169 [ms]
[OGL LOG][Proc: 0]p_local_coeffs: call_update: 0 [ms]
[OGL LOG][Proc: 0]p_non_local_coeffs: call_update: 0 [ms]
[OGL LOG][Proc: 0]p: update_local_matrix_data: 144.658 [ms]
[OGL LOG][Proc: 0]p: update_non_local_matrix_data: 0.639 [ms]
[OGL LOG][Proc: 0]p_matrix: call_update: 4.646 [ms]
[OGL LOG][Proc: 0]p_rhs: call_update: 3.656 [ms]
[OGL LOG][Preconditioner.H:346] Generate preconditioner Multigrid MaxLevels 9 MinCoarseRows 10 ZeroGuess 1 Cycle v
[OGL LOG][Proc: 0]p: init_precond: 743.325 [ms]
[OGL LOG][StoppingCriterion.H:239] Creating stopping criterion with minIter 18 frequency 1
[OGL LOG][Proc: 0]p: generate_solver: 0.008999999999999999 [ms]
[OGL LOG][Proc: 0]p: solve: 582.649 [ms]
[OGL LOG][Proc: 0]p: copy_x_back: 9.987 [ms]
[OGL LOG][lduLduBase.H:330] 
Statistics:
	Time per iteration: 30665 [mu s]
	Time per residual norm calculation: 1307.000000 [mu s]
	Time per iteration and DOF: 1.215488 [ns]
	Retrieve results bandwidth 2.529000 [GByte/s]
[OGL LOG][Proc: 0]p: solve_multi_gpu: 1378.321 [ms]
MultigridcudaGKOCG:  Solving for p, Initial residual = 0.04653063729183963, Final residual = 0.0003517532377335038, No Iterations 19
time step continuity errors : sum local = 0.0002512699193178871, global = 2.789967784064495e-05, cumulative = -0.006813552632398338
smoothSolver:  Solving for nuTilda, Initial residual = 0.008757464663073138, Final residual = 0.0008481828566464655, No Iterations 3
ExecutionTime = 1755.2 s  ClockTime = 1760 s

Time = 100

velocityDampingConstraint velocityDamping damped 0 (0%) of cells, with max limit 300
smoothSolver:  Solving for Ux, Initial residual = 0.002773730195158769, Final residual = 0.0002740235976454381, No Iterations 4
smoothSolver:  Solving for Uy, Initial residual = 0.01236128447703711, Final residual = 0.0007389935772439759, No Iterations 5
smoothSolver:  Solving for Uz, Initial residual = 0.01332594556133511, Final residual = 0.0007940112731871566, No Iterations 5
[OGL LOG][Proc: 0]: global_index_init: 0.187 [ms]
[OGL LOG][Proc: 0]p_local_coeffs: call_update: 0 [ms]
[OGL LOG][Proc: 0]p_non_local_coeffs: call_update: 0 [ms]
[OGL LOG][Proc: 0]p: update_local_matrix_data: 145.167 [ms]
[OGL LOG][Proc: 0]p: update_non_local_matrix_data: 0.542 [ms]
[OGL LOG][Proc: 0]p_matrix: call_update: 4.646 [ms]
[OGL LOG][Proc: 0]p_rhs: call_update: 3.673 [ms]
[OGL LOG][Preconditioner.H:346] Generate preconditioner Multigrid MaxLevels 9 MinCoarseRows 10 ZeroGuess 1 Cycle v
[OGL LOG][Proc: 0]p: init_precond: 756.693 [ms]
[OGL LOG][StoppingCriterion.H:239] Creating stopping criterion with minIter 11 frequency 1
[OGL LOG][Proc: 0]p: generate_solver: 0.01 [ms]
[OGL LOG][Proc: 0]p: solve: 1265.823 [ms]
[OGL LOG][Proc: 0]p: copy_x_back: 10.476 [ms]
[OGL LOG][lduLduBase.H:330] 
Statistics:
	Time per iteration: 23014 [mu s]
	Time per residual norm calculation: 1303.000000 [mu s]
	Time per iteration and DOF: 0.912221 [ns]
	Retrieve results bandwidth 2.411000 [GByte/s]
[OGL LOG][Proc: 0]p: solve_multi_gpu: 2077.642 [ms]
MultigridcudaGKOCG:  Solving for p, Initial residual = 0.04560825183178883, Final residual = 0.000451799519107976, No Iterations 55
time step continuity errors : sum local = 0.0003215048771318148, global = 1.254750593960633e-05, cumulative = -0.006801005126458732
smoothSolver:  Solving for nuTilda, Initial residual = 0.006174699195606651, Final residual = 0.0004884792970544084, No Iterations 4
ExecutionTime = 1771.77 s  ClockTime = 1777 s

End

Finalising parallel run
