/*---------------------------------------------------------------------------*\
| =========                 |                                                 |
| \\      /  F ield         | OpenFOAM: The Open Source CFD Toolbox           |
|  \\    /   O peration     | Version:  2306                                  |
|   \\  /    A nd           | Website:  www.openfoam.com                      |
|    \\/     M anipulation  |                                                 |
\*---------------------------------------------------------------------------*/
Build  : c423ebec-20231012 OPENFOAM=2306 version=v2306
Arch   : "LSB;label=32;scalar=64"
Exec   : decomposePar -force
Date   : Feb 16 2024
Time   : 09:04:57
Host   : hkn1659.localdomain
PID    : 4074955
--> FOAM Warning : 
    From Foam::fileName Foam::cwd_L()
    in file POSIX.C at line 552
    PWD is not the cwd() - reverting to physical description
I/O    : uncollated
--> FOAM Warning : 
    From Foam::fileName Foam::cwd_L()
    in file POSIX.C at line 552
    PWD is not the cwd() - reverting to physical description
Case   : /hkfs/work/workspace/scratch/eq4036-windsorbody_setup/workspace/a7fe4f9440b413fdc48f9a83eb7ec463/case
nProcs : 1
trapFpe: Floating point exception trapping enabled (FOAM_SIGFPE).
fileModificationChecking : Monitoring run-time modified files using timeStampMaster (fileModificationSkew 5, maxFileModificationPolls 20)
allowSystemOperations : Allowing user-supplied system call operations

// * * * * * * * * * * * * * * * * * * * * * * * * * * * * * * * * * * * * * //
Create time

--> FOAM Warning : 
    From void* Foam::dlLibraryTable::openLibrary(const Foam::fileName&, bool)
    in file db/dynamicLibrary/dlLibraryTable/dlLibraryTable.C at line 188
    Could not load "libpetscFoam.so"
libpetscFoam.so: cannot open shared object file: No such file or directory


Decomposing mesh

Create mesh

Calculating distribution of cells
Decomposition method simple [304] (region region0)

Finished decomposition in 16.85 s

Calculating original mesh data

Distributing cells to processors

Distributing faces to processors

Distributing points to processors

Constructing processor meshes

Processor 0
    Number of cells = 127346
    Number of points = 138538
    Number of faces shared with processor 1 = 802
    Number of faces shared with processor 4 = 5233
    Number of faces shared with processor 8 = 480
    Number of faces shared with processor 152 = 4211
    Number of processor patches = 4
    Number of processor faces = 10726
    Number of boundary faces = 8845

Processor 1
    Number of cells = 73907
    Number of points = 81592
    Number of faces shared with processor 0 = 802
    Number of faces shared with processor 2 = 897
    Number of faces shared with processor 4 = 1
    Number of faces shared with processor 5 = 4277
    Number of faces shared with processor 153 = 2077
    Number of faces shared with processor 157 = 1
    Number of processor patches = 6
    Number of processor faces = 8055
    Number of boundary faces = 4417

Processor 2
    Number of cells = 73163
    Number of points = 81214
    Number of faces shared with processor 1 = 897
    Number of faces shared with processor 3 = 874
    Number of faces shared with processor 6 = 4260
    Number of faces shared with processor 153 = 1
    Number of faces shared with processor 154 = 2133
    Number of processor patches = 5
    Number of processor faces = 8165
    Number of boundary faces = 4346

Processor 3
    Number of cells = 148342
    Number of points = 160462
    Number of faces shared with processor 2 = 874
    Number of faces shared with processor 7 = 6550
    Number of faces shared with processor 154 = 1
    Number of faces shared with processor 155 = 4758
    Number of processor patches = 4
    Number of processor faces = 12183
    Number of boundary faces = 10039

Processor 4
    Number of cells = 81154
    Number of points = 92923
    Number of faces shared with processor 0 = 5233
    Number of faces shared with processor 1 = 1
    Number of faces shared with processor 5 = 455
    Number of faces shared with processor 8 = 7178
    Number of faces shared with processor 152 = 1
    Number of faces shared with processor 156 = 2053
    Number of processor patches = 6
    Number of processor faces = 14921
    Number of boundary faces = 4998

Processor 5
    Number of cells = 61756
    Number of points = 69043
    Number of faces shared with processor 1 = 4277
    Number of faces shared with processor 4 = 455
    Number of faces shared with processor 6 = 420
    Number of faces shared with processor 9 = 4387
    Number of faces shared with processor 157 = 2045
    Number of faces shared with processor 161 = 1
    Number of processor patches = 6
    Number of processor faces = 11585
    Number of boundary faces = 2483

Processor 6
    Number of cells = 59640
    Number of points = 66495
    Number of faces shared with processor 2 = 4260
    Number of faces shared with processor 5 = 420
    Number of faces shared with processor 7 = 420
    Number of faces shared with processor 10 = 4260
    Number of faces shared with processor 158 = 1988
    Number of processor patches = 5
    Number of processor faces = 11348
    Number of boundary faces = 1988

Processor 7
    Number of cells = 78669
    Number of points = 89474
    Number of faces shared with processor 3 = 6550
    Number of faces shared with processor 6 = 420
    Number of faces shared with processor 11 = 6228
    Number of faces shared with processor 15 = 310
    Number of faces shared with processor 155 = 2
    Number of faces shared with processor 159 = 1623
    Number of processor patches = 6
    Number of processor faces = 15133
    Number of boundary faces = 4068

Processor 8
    Number of cells = 111858
    Number of points = 123589
    Number of faces shared with processor 0 = 480
    Number of faces shared with processor 4 = 7178
    Number of faces shared with processor 9 = 322
    Number of faces shared with processor 12 = 6404
    Number of faces shared with processor 156 = 22
    Number of faces shared with processor 160 = 1325
    Number of processor patches = 6
    Number of processor faces = 15731
    Number of boundary faces = 10433

Processor 9
    Number of cells = 58264
    Number of points = 65221
    Number of faces shared with processor 5 = 4387
    Number of faces shared with processor 8 = 322
    Number of faces shared with processor 10 = 390
    Number of faces shared with processor 13 = 4329
    Number of faces shared with processor 161 = 1816
    Number of processor patches = 5
    Number of processor faces = 11244
    Number of boundary faces = 2397

Processor 10
    Number of cells = 57070
    Number of points = 63849
    Number of faces shared with processor 6 = 4260
    Number of faces shared with processor 9 = 390
    Number of faces shared with processor 11 = 420
    Number of faces shared with processor 14 = 4313
    Number of faces shared with processor 162 = 1888
    Number of faces shared with processor 166 = 1
    Number of processor patches = 6
    Number of processor faces = 11272
    Number of boundary faces = 1912

Processor 11
    Number of cells = 78689
    Number of points = 89364
    Number of faces shared with processor 7 = 6228
    Number of faces shared with processor 10 = 420
    Number of faces shared with processor 15 = 6288
    Number of faces shared with processor 163 = 1592
    Number of faces shared with processor 167 = 2
    Number of processor patches = 5
    Number of processor faces = 14530
    Number of boundary faces = 4004

Processor 12
    Number of cells = 82844
    Number of points = 93428
    Number of faces shared with processor 8 = 6404
    Number of faces shared with processor 13 = 345
    Number of faces shared with processor 16 = 6289
    Number of faces shared with processor 160 = 2
    Number of faces shared with processor 164 = 442
    Number of processor patches = 5
    Number of processor faces = 13482
    Number of boundary faces = 6957

Processor 13
    Number of cells = 67199
    Number of points = 74503
    Number of faces shared with processor 9 = 4329
    Number of faces shared with processor 12 = 345
    Number of faces shared with processor 14 = 480
    Number of faces shared with processor 17 = 4367
    Number of faces shared with processor 165 = 2068
    Number of faces shared with processor 169 = 1
    Number of processor patches = 6
    Number of processor faces = 11590
    Number of boundary faces = 2762

Processor 14
    Number of cells = 66470
    Number of points = 73628
    Number of faces shared with processor 10 = 4313
    Number of faces shared with processor 13 = 480
    Number of faces shared with processor 15 = 450
    Number of faces shared with processor 18 = 4260
    Number of faces shared with processor 166 = 2229
    Number of processor patches = 5
    Number of processor faces = 11732
    Number of boundary faces = 2206

Processor 15
    Number of cells = 84247
    Number of points = 95901
    Number of faces shared with processor 7 = 310
    Number of faces shared with processor 11 = 6288
    Number of faces shared with processor 14 = 450
    Number of faces shared with processor 19 = 6876
    Number of faces shared with processor 167 = 1682
    Number of faces shared with processor 171 = 1
    Number of processor patches = 6
    Number of processor faces = 15607
    Number of boundary faces = 4317

Processor 16
    Number of cells = 85013
    Number of points = 95670
    Number of faces shared with processor 12 = 6289
    Number of faces shared with processor 17 = 368
    Number of faces shared with processor 20 = 6414
    Number of faces shared with processor 168 = 473
    Number of processor patches = 4
    Number of processor faces = 13544
    Number of boundary faces = 7131

Processor 17
    Number of cells = 66824
    Number of points = 74147
    Number of faces shared with processor 13 = 4367
    Number of faces shared with processor 16 = 368
    Number of faces shared with processor 18 = 450
    Number of faces shared with processor 21 = 4340
    Number of faces shared with processor 169 = 2062
    Number of processor patches = 5
    Number of processor faces = 11587
    Number of boundary faces = 2762

Processor 18
    Number of cells = 63900
    Number of points = 70928
    Number of faces shared with processor 14 = 4260
    Number of faces shared with processor 17 = 450
    Number of faces shared with processor 19 = 450
    Number of faces shared with processor 22 = 4260
    Number of faces shared with processor 170 = 2130
    Number of processor patches = 5
    Number of processor faces = 11550
    Number of boundary faces = 2130

Processor 19
    Number of cells = 85015
    Number of points = 96895
    Number of faces shared with processor 15 = 6876
    Number of faces shared with processor 18 = 450
    Number of faces shared with processor 23 = 6582
    Number of faces shared with processor 171 = 1805
    Number of faces shared with processor 175 = 1
    Number of processor patches = 5
    Number of processor faces = 15714
    Number of boundary faces = 4309

Processor 20
    Number of cells = 86448
    Number of points = 97171
    Number of faces shared with processor 16 = 6414
    Number of faces shared with processor 21 = 345
    Number of faces shared with processor 24 = 6414
    Number of faces shared with processor 168 = 1
    Number of faces shared with processor 172 = 474
    Number of faces shared with processor 176 = 4
    Number of processor patches = 6
    Number of processor faces = 13652
    Number of boundary faces = 7209

Processor 21
    Number of cells = 64792
    Number of points = 71992
    Number of faces shared with processor 17 = 4340
    Number of faces shared with processor 20 = 345
    Number of faces shared with processor 22 = 450
    Number of faces shared with processor 25 = 4315
    Number of faces shared with processor 173 = 1990
    Number of processor patches = 5
    Number of processor faces = 11440
    Number of boundary faces = 2707

Processor 22
    Number of cells = 63900
    Number of points = 70928
    Number of faces shared with processor 18 = 4260
    Number of faces shared with processor 21 = 450
    Number of faces shared with processor 23 = 450
    Number of faces shared with processor 26 = 4260
    Number of faces shared with processor 174 = 2130
    Number of processor patches = 5
    Number of processor faces = 11550
    Number of boundary faces = 2130

Processor 23
    Number of cells = 88852
    Number of points = 100700
    Number of faces shared with processor 19 = 6582
    Number of faces shared with processor 22 = 450
    Number of faces shared with processor 27 = 6624
    Number of faces shared with processor 175 = 1796
    Number of processor patches = 4
    Number of processor faces = 15452
    Number of boundary faces = 4553

Processor 24
    Number of cells = 90797
    Number of points = 102572
    Number of faces shared with processor 20 = 6414
    Number of faces shared with processor 25 = 345
    Number of faces shared with processor 28 = 7561
    Number of faces shared with processor 176 = 467
    Number of faces shared with processor 180 = 2
    Number of processor patches = 5
    Number of processor faces = 14789
    Number of boundary faces = 7771

Processor 25
    Number of cells = 64945
    Number of points = 72178
    Number of faces shared with processor 21 = 4315
    Number of faces shared with processor 24 = 345
    Number of faces shared with processor 26 = 450
    Number of faces shared with processor 29 = 4355
    Number of faces shared with processor 177 = 2009
    Number of faces shared with processor 181 = 1
    Number of processor patches = 6
    Number of processor faces = 11475
    Number of boundary faces = 2740

Processor 26
    Number of cells = 65780
    Number of points = 72911
    Number of faces shared with processor 22 = 4260
    Number of faces shared with processor 25 = 450
    Number of faces shared with processor 27 = 480
    Number of faces shared with processor 30 = 4313
    Number of faces shared with processor 178 = 2178
    Number of faces shared with processor 182 = 1
    Number of processor patches = 6
    Number of processor faces = 11682
    Number of boundary faces = 2202

Processor 27
    Number of cells = 85531
    Number of points = 97248
    Number of faces shared with processor 23 = 6624
    Number of faces shared with processor 26 = 480
    Number of faces shared with processor 31 = 6854
    Number of faces shared with processor 175 = 1
    Number of faces shared with processor 179 = 1731
    Number of processor patches = 5
    Number of processor faces = 15690
    Number of boundary faces = 4343

Processor 28
    Number of cells = 109248
    Number of points = 122060
    Number of faces shared with processor 24 = 7561
    Number of faces shared with processor 29 = 439
    Number of faces shared with processor 32 = 7017
    Number of faces shared with processor 180 = 2457
    Number of faces shared with processor 181 = 1
    Number of faces shared with processor 184 = 49
    Number of processor patches = 6
    Number of processor faces = 17524
    Number of boundary faces = 9653

Processor 29
    Number of cells = 54416
    Number of points = 61391
    Number of faces shared with processor 25 = 4355
    Number of faces shared with processor 28 = 439
    Number of faces shared with processor 30 = 360
    Number of faces shared with processor 33 = 4208
    Number of faces shared with processor 177 = 2
    Number of faces shared with processor 181 = 1853
    Number of processor patches = 6
    Number of processor faces = 11217
    Number of boundary faces = 2220

Processor 30
    Number of cells = 53100
    Number of points = 59729
    Number of faces shared with processor 26 = 4313
    Number of faces shared with processor 29 = 360
    Number of faces shared with processor 31 = 360
    Number of faces shared with processor 34 = 4313
    Number of faces shared with processor 182 = 1769
    Number of faces shared with processor 186 = 1
    Number of processor patches = 6
    Number of processor faces = 11116
    Number of boundary faces = 1770

Processor 31
    Number of cells = 67901
    Number of points = 78861
    Number of faces shared with processor 27 = 6854
    Number of faces shared with processor 30 = 360
    Number of faces shared with processor 35 = 6847
    Number of faces shared with processor 179 = 2
    Number of faces shared with processor 183 = 1402
    Number of processor patches = 5
    Number of processor faces = 15465
    Number of boundary faces = 3461

Processor 32
    Number of cells = 101125
    Number of points = 113382
    Number of faces shared with processor 28 = 7017
    Number of faces shared with processor 33 = 456
    Number of faces shared with processor 36 = 5626
    Number of faces shared with processor 37 = 1
    Number of faces shared with processor 184 = 1787
    Number of processor patches = 5
    Number of processor faces = 14887
    Number of boundary faces = 5692

Processor 33
    Number of cells = 74900
    Number of points = 82651
    Number of faces shared with processor 29 = 4208
    Number of faces shared with processor 32 = 456
    Number of faces shared with processor 34 = 576
    Number of faces shared with processor 37 = 2819
    Number of faces shared with processor 181 = 2
    Number of faces shared with processor 185 = 1868
    Number of processor patches = 6
    Number of processor faces = 9929
    Number of boundary faces = 3359

Processor 34
    Number of cells = 71308
    Number of points = 78730
    Number of faces shared with processor 30 = 4313
    Number of faces shared with processor 33 = 576
    Number of faces shared with processor 35 = 546
    Number of faces shared with processor 37 = 1
    Number of faces shared with processor 38 = 2774
    Number of faces shared with processor 39 = 1
    Number of faces shared with processor 186 = 1725
    Number of processor patches = 7
    Number of processor faces = 9936
    Number of boundary faces = 3192

Processor 35
    Number of cells = 117593
    Number of points = 130115
    Number of faces shared with processor 31 = 6847
    Number of faces shared with processor 34 = 546
    Number of faces shared with processor 39 = 6091
    Number of faces shared with processor 183 = 1
    Number of faces shared with processor 187 = 2189
    Number of faces shared with processor 191 = 2
    Number of processor patches = 6
    Number of processor faces = 15676
    Number of boundary faces = 6454

Processor 36
    Number of cells = 132978
    Number of points = 148369
    Number of faces shared with processor 32 = 5626
    Number of faces shared with processor 37 = 1035
    Number of faces shared with processor 40 = 5695
    Number of faces shared with processor 188 = 6196
    Number of processor patches = 4
    Number of processor faces = 18552
    Number of boundary faces = 9225

Processor 37
    Number of cells = 68471
    Number of points = 77327
    Number of faces shared with processor 32 = 1
    Number of faces shared with processor 33 = 2819
    Number of faces shared with processor 34 = 1
    Number of faces shared with processor 36 = 1035
    Number of faces shared with processor 38 = 1137
    Number of faces shared with processor 40 = 2
    Number of faces shared with processor 41 = 2914
    Number of faces shared with processor 42 = 1
    Number of faces shared with processor 189 = 2839
    Number of faces shared with processor 193 = 1
    Number of processor patches = 10
    Number of processor faces = 10750
    Number of boundary faces = 4326

Processor 38
    Number of cells = 66490
    Number of points = 74939
    Number of faces shared with processor 34 = 2774
    Number of faces shared with processor 37 = 1137
    Number of faces shared with processor 39 = 1090
    Number of faces shared with processor 42 = 2706
    Number of faces shared with processor 43 = 10
    Number of faces shared with processor 189 = 2
    Number of faces shared with processor 190 = 2772
    Number of faces shared with processor 191 = 2
    Number of processor patches = 8
    Number of processor faces = 10493
    Number of boundary faces = 4262

Processor 39
    Number of cells = 147563
    Number of points = 164337
    Number of faces shared with processor 34 = 1
    Number of faces shared with processor 35 = 6091
    Number of faces shared with processor 38 = 1090
    Number of faces shared with processor 43 = 6215
    Number of faces shared with processor 187 = 3
    Number of faces shared with processor 191 = 6800
    Number of processor patches = 6
    Number of processor faces = 20200
    Number of boundary faces = 10140

Processor 40
    Number of cells = 98352
    Number of points = 110703
    Number of faces shared with processor 36 = 5695
    Number of faces shared with processor 37 = 2
    Number of faces shared with processor 41 = 494
    Number of faces shared with processor 44 = 6926
    Number of faces shared with processor 188 = 126
    Number of faces shared with processor 192 = 1572
    Number of faces shared with processor 196 = 63
    Number of processor patches = 7
    Number of processor faces = 14878
    Number of boundary faces = 5497

Processor 41
    Number of cells = 76287
    Number of points = 84497
    Number of faces shared with processor 37 = 2914
    Number of faces shared with processor 40 = 494
    Number of faces shared with processor 42 = 589
    Number of faces shared with processor 45 = 4661
    Number of faces shared with processor 189 = 2
    Number of faces shared with processor 192 = 1
    Number of faces shared with processor 193 = 1949
    Number of faces shared with processor 194 = 2
    Number of faces shared with processor 197 = 1
    Number of processor patches = 9
    Number of processor faces = 10613
    Number of boundary faces = 3341

Processor 42
    Number of cells = 75543
    Number of points = 83437
    Number of faces shared with processor 37 = 1
    Number of faces shared with processor 38 = 2706
    Number of faces shared with processor 41 = 589
    Number of faces shared with processor 43 = 560
    Number of faces shared with processor 46 = 4371
    Number of faces shared with processor 194 = 1976
    Number of processor patches = 6
    Number of processor faces = 10203
    Number of boundary faces = 3275

Processor 43
    Number of cells = 120420
    Number of points = 132243
    Number of faces shared with processor 38 = 10
    Number of faces shared with processor 39 = 6215
    Number of faces shared with processor 42 = 560
    Number of faces shared with processor 47 = 6619
    Number of faces shared with processor 195 = 2172
    Number of faces shared with processor 199 = 1
    Number of processor patches = 6
    Number of processor faces = 15577
    Number of boundary faces = 6725

Processor 44
    Number of cells = 111029
    Number of points = 124568
    Number of faces shared with processor 40 = 6926
    Number of faces shared with processor 45 = 448
    Number of faces shared with processor 48 = 7849
    Number of faces shared with processor 196 = 2565
    Number of faces shared with processor 200 = 18
    Number of processor patches = 5
    Number of processor faces = 17806
    Number of boundary faces = 9265

Processor 45
    Number of cells = 57092
    Number of points = 64292
    Number of faces shared with processor 41 = 4661
    Number of faces shared with processor 44 = 448
    Number of faces shared with processor 46 = 372
    Number of faces shared with processor 49 = 4455
    Number of faces shared with processor 197 = 1796
    Number of processor patches = 5
    Number of processor faces = 11732
    Number of boundary faces = 2511

Processor 46
    Number of cells = 52452
    Number of points = 59072
    Number of faces shared with processor 42 = 4371
    Number of faces shared with processor 45 = 372
    Number of faces shared with processor 47 = 372
    Number of faces shared with processor 50 = 4371
    Number of faces shared with processor 198 = 1692
    Number of processor patches = 5
    Number of processor faces = 11178
    Number of boundary faces = 1692

Processor 47
    Number of cells = 68764
    Number of points = 79151
    Number of faces shared with processor 43 = 6619
    Number of faces shared with processor 46 = 372
    Number of faces shared with processor 51 = 6676
    Number of faces shared with processor 199 = 1423
    Number of faces shared with processor 203 = 1
    Number of processor patches = 5
    Number of processor faces = 15091
    Number of boundary faces = 3514

Processor 48
    Number of cells = 90908
    Number of points = 101896
    Number of faces shared with processor 44 = 7849
    Number of faces shared with processor 49 = 345
    Number of faces shared with processor 52 = 6396
    Number of faces shared with processor 200 = 472
    Number of processor patches = 4
    Number of processor faces = 15062
    Number of boundary faces = 7931

Processor 49
    Number of cells = 66925
    Number of points = 74275
    Number of faces shared with processor 45 = 4455
    Number of faces shared with processor 48 = 345
    Number of faces shared with processor 50 = 465
    Number of faces shared with processor 53 = 4461
    Number of faces shared with processor 201 = 2010
    Number of processor patches = 5
    Number of processor faces = 11736
    Number of boundary faces = 2683

Processor 50
    Number of cells = 65565
    Number of points = 72704
    Number of faces shared with processor 46 = 4371
    Number of faces shared with processor 49 = 465
    Number of faces shared with processor 51 = 465
    Number of faces shared with processor 54 = 4371
    Number of faces shared with processor 202 = 2115
    Number of processor patches = 5
    Number of processor faces = 11787
    Number of boundary faces = 2115

Processor 51
    Number of cells = 86121
    Number of points = 98037
    Number of faces shared with processor 47 = 6676
    Number of faces shared with processor 50 = 465
    Number of faces shared with processor 55 = 6948
    Number of faces shared with processor 203 = 1805
    Number of faces shared with processor 207 = 2
    Number of processor patches = 5
    Number of processor faces = 15896
    Number of boundary faces = 4326

Processor 52
    Number of cells = 84642
    Number of points = 95309
    Number of faces shared with processor 48 = 6396
    Number of faces shared with processor 53 = 345
    Number of faces shared with processor 56 = 6303
    Number of faces shared with processor 204 = 464
    Number of processor patches = 4
    Number of processor faces = 13508
    Number of boundary faces = 7058

Processor 53
    Number of cells = 66851
    Number of points = 74180
    Number of faces shared with processor 49 = 4461
    Number of faces shared with processor 52 = 345
    Number of faces shared with processor 54 = 465
    Number of faces shared with processor 57 = 4455
    Number of faces shared with processor 205 = 2000
    Number of processor patches = 5
    Number of processor faces = 11726
    Number of boundary faces = 2694

Processor 54
    Number of cells = 66470
    Number of points = 73680
    Number of faces shared with processor 50 = 4371
    Number of faces shared with processor 53 = 465
    Number of faces shared with processor 55 = 496
    Number of faces shared with processor 58 = 4426
    Number of faces shared with processor 206 = 2129
    Number of faces shared with processor 210 = 1
    Number of processor patches = 6
    Number of processor faces = 11888
    Number of boundary faces = 2154

Processor 55
    Number of cells = 90686
    Number of points = 102762
    Number of faces shared with processor 51 = 6948
    Number of faces shared with processor 54 = 496
    Number of faces shared with processor 59 = 6918
    Number of faces shared with processor 203 = 1
    Number of faces shared with processor 207 = 1773
    Number of faces shared with processor 211 = 1
    Number of processor patches = 6
    Number of processor faces = 16137
    Number of boundary faces = 4603

Processor 56
    Number of cells = 83449
    Number of points = 93981
    Number of faces shared with processor 52 = 6303
    Number of faces shared with processor 57 = 362
    Number of faces shared with processor 60 = 6395
    Number of faces shared with processor 61 = 1
    Number of faces shared with processor 208 = 475
    Number of faces shared with processor 212 = 1
    Number of processor patches = 6
    Number of processor faces = 13537
    Number of boundary faces = 6956

Processor 57
    Number of cells = 66960
    Number of points = 74347
    Number of faces shared with processor 53 = 4455
    Number of faces shared with processor 56 = 362
    Number of faces shared with processor 58 = 479
    Number of faces shared with processor 61 = 4472
    Number of faces shared with processor 209 = 1993
    Number of processor patches = 5
    Number of processor faces = 11761
    Number of boundary faces = 2720

Processor 58
    Number of cells = 68895
    Number of points = 76192
    Number of faces shared with processor 54 = 4426
    Number of faces shared with processor 57 = 479
    Number of faces shared with processor 59 = 465
    Number of faces shared with processor 61 = 1
    Number of faces shared with processor 62 = 4403
    Number of faces shared with processor 210 = 2224
    Number of faces shared with processor 214 = 1
    Number of processor patches = 7
    Number of processor faces = 11999
    Number of boundary faces = 2217

Processor 59
    Number of cells = 86273
    Number of points = 98262
    Number of faces shared with processor 55 = 6918
    Number of faces shared with processor 58 = 465
    Number of faces shared with processor 63 = 6676
    Number of faces shared with processor 211 = 1826
    Number of faces shared with processor 215 = 1
    Number of processor patches = 5
    Number of processor faces = 15886
    Number of boundary faces = 4328

Processor 60
    Number of cells = 84069
    Number of points = 94815
    Number of faces shared with processor 56 = 6395
    Number of faces shared with processor 61 = 384
    Number of faces shared with processor 64 = 5962
    Number of faces shared with processor 68 = 452
    Number of faces shared with processor 212 = 455
    Number of processor patches = 5
    Number of processor faces = 13648
    Number of boundary faces = 6997

Processor 61
    Number of cells = 71270
    Number of points = 78816
    Number of faces shared with processor 56 = 1
    Number of faces shared with processor 57 = 4472
    Number of faces shared with processor 58 = 1
    Number of faces shared with processor 60 = 384
    Number of faces shared with processor 62 = 481
    Number of faces shared with processor 65 = 4504
    Number of faces shared with processor 213 = 2105
    Number of processor patches = 7
    Number of processor faces = 11948
    Number of boundary faces = 2894

Processor 62
    Number of cells = 65701
    Number of points = 72873
    Number of faces shared with processor 58 = 4403
    Number of faces shared with processor 61 = 481
    Number of faces shared with processor 63 = 465
    Number of faces shared with processor 66 = 4371
    Number of faces shared with processor 214 = 2131
    Number of processor patches = 5
    Number of processor faces = 11851
    Number of boundary faces = 2115

Processor 63
    Number of cells = 85880
    Number of points = 97717
    Number of faces shared with processor 59 = 6676
    Number of faces shared with processor 62 = 465
    Number of faces shared with processor 67 = 6951
    Number of faces shared with processor 215 = 1755
    Number of faces shared with processor 219 = 2
    Number of processor patches = 5
    Number of processor faces = 15849
    Number of boundary faces = 4330

Processor 64
    Number of cells = 105863
    Number of points = 117854
    Number of faces shared with processor 60 = 5962
    Number of faces shared with processor 65 = 469
    Number of faces shared with processor 68 = 7192
    Number of faces shared with processor 72 = 28
    Number of faces shared with processor 212 = 16
    Number of faces shared with processor 216 = 833
    Number of faces shared with processor 220 = 1
    Number of processor patches = 7
    Number of processor faces = 14501
    Number of boundary faces = 9998

Processor 65
    Number of cells = 62628
    Number of points = 70024
    Number of faces shared with processor 61 = 4504
    Number of faces shared with processor 64 = 469
    Number of faces shared with processor 66 = 434
    Number of faces shared with processor 69 = 4551
    Number of faces shared with processor 217 = 1942
    Number of faces shared with processor 221 = 1
    Number of processor patches = 6
    Number of processor faces = 11901
    Number of boundary faces = 2745

Processor 66
    Number of cells = 61194
    Number of points = 68160
    Number of faces shared with processor 62 = 4371
    Number of faces shared with processor 65 = 434
    Number of faces shared with processor 67 = 434
    Number of faces shared with processor 70 = 4371
    Number of faces shared with processor 218 = 1974
    Number of processor patches = 5
    Number of processor faces = 11584
    Number of boundary faces = 1974

Processor 67
    Number of cells = 79726
    Number of points = 91336
    Number of faces shared with processor 63 = 6951
    Number of faces shared with processor 66 = 434
    Number of faces shared with processor 71 = 6623
    Number of faces shared with processor 75 = 310
    Number of faces shared with processor 219 = 1605
    Number of processor patches = 5
    Number of processor faces = 15923
    Number of boundary faces = 4027

Processor 68
    Number of cells = 92523
    Number of points = 104824
    Number of faces shared with processor 60 = 452
    Number of faces shared with processor 64 = 7192
    Number of faces shared with processor 69 = 302
    Number of faces shared with processor 72 = 5557
    Number of faces shared with processor 220 = 2586
    Number of processor patches = 5
    Number of processor faces = 16089
    Number of boundary faces = 6056

Processor 69
    Number of cells = 59053
    Number of points = 66231
    Number of faces shared with processor 65 = 4551
    Number of faces shared with processor 68 = 302
    Number of faces shared with processor 70 = 403
    Number of faces shared with processor 73 = 4319
    Number of faces shared with processor 217 = 4
    Number of faces shared with processor 221 = 1881
    Number of processor patches = 6
    Number of processor faces = 11460
    Number of boundary faces = 1979

Processor 70
    Number of cells = 60208
    Number of points = 67152
    Number of faces shared with processor 66 = 4371
    Number of faces shared with processor 69 = 403
    Number of faces shared with processor 71 = 434
    Number of faces shared with processor 74 = 4426
    Number of faces shared with processor 222 = 1927
    Number of faces shared with processor 226 = 1
    Number of processor patches = 6
    Number of processor faces = 11562
    Number of boundary faces = 1952

Processor 71
    Number of cells = 80174
    Number of points = 91526
    Number of faces shared with processor 67 = 6623
    Number of faces shared with processor 70 = 434
    Number of faces shared with processor 75 = 6653
    Number of faces shared with processor 219 = 3
    Number of faces shared with processor 223 = 1645
    Number of faces shared with processor 227 = 1
    Number of processor patches = 6
    Number of processor faces = 15359
    Number of boundary faces = 4007

Processor 72
    Number of cells = 131499
    Number of points = 142447
    Number of faces shared with processor 64 = 28
    Number of faces shared with processor 68 = 5557
    Number of faces shared with processor 73 = 801
    Number of faces shared with processor 76 = 710
    Number of faces shared with processor 220 = 16
    Number of faces shared with processor 224 = 4051
    Number of processor patches = 6
    Number of processor faces = 11163
    Number of boundary faces = 8360

Processor 73
    Number of cells = 76777
    Number of points = 84695
    Number of faces shared with processor 69 = 4319
    Number of faces shared with processor 72 = 801
    Number of faces shared with processor 74 = 909
    Number of faces shared with processor 77 = 90
    Number of faces shared with processor 225 = 2169
    Number of processor patches = 5
    Number of processor faces = 8288
    Number of boundary faces = 4383

Processor 74
    Number of cells = 72974
    Number of points = 80352
    Number of faces shared with processor 70 = 4426
    Number of faces shared with processor 73 = 909
    Number of faces shared with processor 75 = 840
    Number of faces shared with processor 78 = 80
    Number of faces shared with processor 225 = 1
    Number of faces shared with processor 226 = 2082
    Number of processor patches = 6
    Number of processor faces = 8338
    Number of boundary faces = 4224

Processor 75
    Number of cells = 147069
    Number of points = 158944
    Number of faces shared with processor 67 = 310
    Number of faces shared with processor 71 = 6653
    Number of faces shared with processor 74 = 840
    Number of faces shared with processor 79 = 562
    Number of faces shared with processor 223 = 3
    Number of faces shared with processor 226 = 10
    Number of faces shared with processor 227 = 4615
    Number of processor patches = 7
    Number of processor faces = 12993
    Number of boundary faces = 9256

Processor 76
    Number of cells = 129400
    Number of points = 140568
    Number of faces shared with processor 72 = 710
    Number of faces shared with processor 77 = 772
    Number of faces shared with processor 80 = 5344
    Number of faces shared with processor 84 = 480
    Number of faces shared with processor 228 = 4049
    Number of faces shared with processor 232 = 18
    Number of processor patches = 6
    Number of processor faces = 11373
    Number of boundary faces = 8109

Processor 77
    Number of cells = 75748
    Number of points = 83579
    Number of faces shared with processor 73 = 90
    Number of faces shared with processor 76 = 772
    Number of faces shared with processor 78 = 911
    Number of faces shared with processor 81 = 4566
    Number of faces shared with processor 229 = 1985
    Number of faces shared with processor 233 = 1
    Number of processor patches = 6
    Number of processor faces = 8325
    Number of boundary faces = 4345

Processor 78
    Number of cells = 74928
    Number of points = 83198
    Number of faces shared with processor 74 = 80
    Number of faces shared with processor 77 = 911
    Number of faces shared with processor 79 = 860
    Number of faces shared with processor 82 = 4512
    Number of faces shared with processor 230 = 2030
    Number of faces shared with processor 231 = 6
    Number of processor patches = 6
    Number of processor faces = 8399
    Number of boundary faces = 4251

Processor 79
    Number of cells = 152518
    Number of points = 164796
    Number of faces shared with processor 75 = 562
    Number of faces shared with processor 78 = 860
    Number of faces shared with processor 83 = 6814
    Number of faces shared with processor 230 = 4
    Number of faces shared with processor 231 = 4477
    Number of faces shared with processor 235 = 14
    Number of processor patches = 6
    Number of processor faces = 12731
    Number of boundary faces = 9500

Processor 80
    Number of cells = 83777
    Number of points = 95867
    Number of faces shared with processor 76 = 5344
    Number of faces shared with processor 81 = 458
    Number of faces shared with processor 84 = 7368
    Number of faces shared with processor 232 = 1967
    Number of processor patches = 4
    Number of processor faces = 15137
    Number of boundary faces = 5128

Processor 81
    Number of cells = 66263
    Number of points = 73922
    Number of faces shared with processor 77 = 4566
    Number of faces shared with processor 80 = 458
    Number of faces shared with processor 82 = 448
    Number of faces shared with processor 85 = 4684
    Number of faces shared with processor 233 = 2055
    Number of faces shared with processor 237 = 1
    Number of processor patches = 6
    Number of processor faces = 12212
    Number of boundary faces = 2567

Processor 82
    Number of cells = 63168
    Number of points = 70290
    Number of faces shared with processor 78 = 4512
    Number of faces shared with processor 81 = 448
    Number of faces shared with processor 83 = 448
    Number of faces shared with processor 86 = 4512
    Number of faces shared with processor 234 = 1974
    Number of processor patches = 5
    Number of processor faces = 11894
    Number of boundary faces = 1974

Processor 83
    Number of cells = 81370
    Number of points = 92477
    Number of faces shared with processor 79 = 6814
    Number of faces shared with processor 82 = 448
    Number of faces shared with processor 87 = 6489
    Number of faces shared with processor 91 = 310
    Number of faces shared with processor 231 = 4
    Number of faces shared with processor 235 = 1624
    Number of processor patches = 6
    Number of processor faces = 15689
    Number of boundary faces = 4082

Processor 84
    Number of cells = 112848
    Number of points = 124729
    Number of faces shared with processor 76 = 480
    Number of faces shared with processor 80 = 7368
    Number of faces shared with processor 85 = 322
    Number of faces shared with processor 88 = 6418
    Number of faces shared with processor 236 = 1274
    Number of faces shared with processor 240 = 16
    Number of processor patches = 6
    Number of processor faces = 15878
    Number of boundary faces = 10562

Processor 85
    Number of cells = 62221
    Number of points = 69516
    Number of faces shared with processor 81 = 4684
    Number of faces shared with processor 84 = 322
    Number of faces shared with processor 86 = 416
    Number of faces shared with processor 89 = 4620
    Number of faces shared with processor 237 = 1818
    Number of processor patches = 5
    Number of processor faces = 11860
    Number of boundary faces = 2453

Processor 86
    Number of cells = 60396
    Number of points = 67442
    Number of faces shared with processor 82 = 4512
    Number of faces shared with processor 85 = 416
    Number of faces shared with processor 87 = 448
    Number of faces shared with processor 90 = 4569
    Number of faces shared with processor 238 = 1872
    Number of faces shared with processor 242 = 1
    Number of processor patches = 6
    Number of processor faces = 11818
    Number of boundary faces = 1898

Processor 87
    Number of cells = 81390
    Number of points = 92367
    Number of faces shared with processor 83 = 6489
    Number of faces shared with processor 86 = 448
    Number of faces shared with processor 91 = 6552
    Number of faces shared with processor 239 = 1579
    Number of faces shared with processor 243 = 18
    Number of processor patches = 5
    Number of processor faces = 15086
    Number of boundary faces = 4018

Processor 88
    Number of cells = 82818
    Number of points = 93405
    Number of faces shared with processor 84 = 6418
    Number of faces shared with processor 89 = 345
    Number of faces shared with processor 92 = 6301
    Number of faces shared with processor 240 = 421
    Number of processor patches = 4
    Number of processor faces = 13485
    Number of boundary faces = 6942

Processor 89
    Number of cells = 71678
    Number of points = 79321
    Number of faces shared with processor 85 = 4620
    Number of faces shared with processor 88 = 345
    Number of faces shared with processor 90 = 512
    Number of faces shared with processor 93 = 4660
    Number of faces shared with processor 241 = 2066
    Number of faces shared with processor 245 = 1
    Number of processor patches = 6
    Number of processor faces = 12204
    Number of boundary faces = 2822

Processor 90
    Number of cells = 70452
    Number of points = 77882
    Number of faces shared with processor 86 = 4569
    Number of faces shared with processor 89 = 512
    Number of faces shared with processor 91 = 480
    Number of faces shared with processor 94 = 4512
    Number of faces shared with processor 242 = 2216
    Number of processor patches = 5
    Number of processor faces = 12289
    Number of boundary faces = 2191

Processor 91
    Number of cells = 87087
    Number of points = 99048
    Number of faces shared with processor 83 = 310
    Number of faces shared with processor 87 = 6552
    Number of faces shared with processor 90 = 480
    Number of faces shared with processor 95 = 7140
    Number of faces shared with processor 243 = 1687
    Number of processor patches = 5
    Number of processor faces = 16169
    Number of boundary faces = 4332

Processor 92
    Number of cells = 85001
    Number of points = 95662
    Number of faces shared with processor 88 = 6301
    Number of faces shared with processor 93 = 368
    Number of faces shared with processor 96 = 6428
    Number of faces shared with processor 244 = 450
    Number of processor patches = 4
    Number of processor faces = 13547
    Number of boundary faces = 7114

Processor 93
    Number of cells = 71320
    Number of points = 78985
    Number of faces shared with processor 89 = 4660
    Number of faces shared with processor 92 = 368
    Number of faces shared with processor 94 = 480
    Number of faces shared with processor 97 = 4631
    Number of faces shared with processor 245 = 2064
    Number of processor patches = 5
    Number of processor faces = 12203
    Number of boundary faces = 2824

Processor 94
    Number of cells = 67680
    Number of points = 74976
    Number of faces shared with processor 90 = 4512
    Number of faces shared with processor 93 = 480
    Number of faces shared with processor 95 = 480
    Number of faces shared with processor 98 = 4512
    Number of faces shared with processor 246 = 2115
    Number of processor patches = 5
    Number of processor faces = 12099
    Number of boundary faces = 2115

Processor 95
    Number of cells = 87977
    Number of points = 100164
    Number of faces shared with processor 91 = 7140
    Number of faces shared with processor 94 = 480
    Number of faces shared with processor 99 = 6844
    Number of faces shared with processor 247 = 1809
    Number of processor patches = 4
    Number of processor faces = 16273
    Number of boundary faces = 4324

Processor 96
    Number of cells = 86455
    Number of points = 97183
    Number of faces shared with processor 92 = 6428
    Number of faces shared with processor 97 = 345
    Number of faces shared with processor 100 = 6432
    Number of faces shared with processor 248 = 453
    Number of processor patches = 4
    Number of processor faces = 13658
    Number of boundary faces = 7195

Processor 97
    Number of cells = 69117
    Number of points = 76654
    Number of faces shared with processor 93 = 4631
    Number of faces shared with processor 96 = 345
    Number of faces shared with processor 98 = 480
    Number of faces shared with processor 101 = 4602
    Number of faces shared with processor 249 = 1990
    Number of processor patches = 5
    Number of processor faces = 12048
    Number of boundary faces = 2769

Processor 98
    Number of cells = 67680
    Number of points = 74976
    Number of faces shared with processor 94 = 4512
    Number of faces shared with processor 97 = 480
    Number of faces shared with processor 99 = 480
    Number of faces shared with processor 102 = 4512
    Number of faces shared with processor 250 = 2115
    Number of processor patches = 5
    Number of processor faces = 12099
    Number of boundary faces = 2115

Processor 99
    Number of cells = 91813
    Number of points = 103969
    Number of faces shared with processor 95 = 6844
    Number of faces shared with processor 98 = 480
    Number of faces shared with processor 103 = 6888
    Number of faces shared with processor 251 = 1801
    Number of processor patches = 4
    Number of processor faces = 16013
    Number of boundary faces = 4568

Processor 100
    Number of cells = 90803
    Number of points = 102587
    Number of faces shared with processor 256 = 1
    Number of faces shared with processor 96 = 6432
    Number of faces shared with processor 101 = 345
    Number of faces shared with processor 104 = 7575
    Number of faces shared with processor 248 = 16
    Number of faces shared with processor 252 = 429
    Number of processor patches = 6
    Number of processor faces = 14798
    Number of boundary faces = 7756

Processor 101
    Number of cells = 69143
    Number of points = 76681
    Number of faces shared with processor 97 = 4602
    Number of faces shared with processor 100 = 345
    Number of faces shared with processor 102 = 480
    Number of faces shared with processor 105 = 4622
    Number of faces shared with processor 253 = 1980
    Number of processor patches = 5
    Number of processor faces = 12029
    Number of boundary faces = 2793

Processor 102
    Number of cells = 69623
    Number of points = 77023
    Number of faces shared with processor 258 = 1
    Number of faces shared with processor 98 = 4512
    Number of faces shared with processor 101 = 480
    Number of faces shared with processor 103 = 512
    Number of faces shared with processor 106 = 4569
    Number of faces shared with processor 254 = 2160
    Number of processor patches = 6
    Number of processor faces = 12234
    Number of boundary faces = 2186

Processor 103
    Number of cells = 88502
    Number of points = 100529
    Number of faces shared with processor 99 = 6888
    Number of faces shared with processor 102 = 512
    Number of faces shared with processor 107 = 7120
    Number of faces shared with processor 255 = 1737
    Number of processor patches = 4
    Number of processor faces = 16257
    Number of boundary faces = 4359

Processor 104
    Number of cells = 111082
    Number of points = 124086
    Number of faces shared with processor 256 = 2324
    Number of faces shared with processor 260 = 1
    Number of faces shared with processor 100 = 7575
    Number of faces shared with processor 105 = 434
    Number of faces shared with processor 108 = 7244
    Number of faces shared with processor 252 = 16
    Number of processor patches = 6
    Number of processor faces = 17594
    Number of boundary faces = 9828

Processor 105
    Number of cells = 57807
    Number of points = 65067
    Number of faces shared with processor 257 = 1807
    Number of faces shared with processor 101 = 4622
    Number of faces shared with processor 104 = 434
    Number of faces shared with processor 106 = 384
    Number of faces shared with processor 109 = 4448
    Number of faces shared with processor 253 = 1
    Number of processor patches = 6
    Number of processor faces = 11696
    Number of boundary faces = 2278

Processor 106
    Number of cells = 56256
    Number of points = 63154
    Number of faces shared with processor 258 = 1757
    Number of faces shared with processor 262 = 1
    Number of faces shared with processor 102 = 4569
    Number of faces shared with processor 105 = 384
    Number of faces shared with processor 107 = 384
    Number of faces shared with processor 110 = 4569
    Number of processor patches = 6
    Number of processor faces = 11664
    Number of boundary faces = 1758

Processor 107
    Number of cells = 70220
    Number of points = 81480
    Number of faces shared with processor 259 = 1388
    Number of faces shared with processor 103 = 7120
    Number of faces shared with processor 106 = 384
    Number of faces shared with processor 111 = 7112
    Number of faces shared with processor 255 = 18
    Number of processor patches = 5
    Number of processor faces = 16022
    Number of boundary faces = 3473

Processor 108
    Number of cells = 102337
    Number of points = 114806
    Number of faces shared with processor 256 = 16
    Number of faces shared with processor 260 = 1683
    Number of faces shared with processor 104 = 7244
    Number of faces shared with processor 109 = 446
    Number of faces shared with processor 112 = 5739
    Number of processor patches = 5
    Number of processor faces = 15128
    Number of boundary faces = 5668

Processor 109
    Number of cells = 77747
    Number of points = 85697
    Number of faces shared with processor 261 = 1762
    Number of faces shared with processor 105 = 4448
    Number of faces shared with processor 108 = 446
    Number of faces shared with processor 110 = 604
    Number of faces shared with processor 113 = 2897
    Number of faces shared with processor 114 = 1
    Number of processor patches = 6
    Number of processor faces = 10158
    Number of boundary faces = 3383

Processor 110
    Number of cells = 73893
    Number of points = 81603
    Number of faces shared with processor 262 = 1724
    Number of faces shared with processor 106 = 4569
    Number of faces shared with processor 109 = 604
    Number of faces shared with processor 111 = 544
    Number of faces shared with processor 114 = 2837
    Number of processor patches = 5
    Number of processor faces = 10278
    Number of boundary faces = 3170

Processor 111
    Number of cells = 120632
    Number of points = 133422
    Number of faces shared with processor 259 = 18
    Number of faces shared with processor 263 = 2138
    Number of faces shared with processor 267 = 19
    Number of faces shared with processor 107 = 7112
    Number of faces shared with processor 110 = 544
    Number of faces shared with processor 115 = 6263
    Number of processor patches = 6
    Number of processor faces = 16094
    Number of boundary faces = 6476

Processor 112
    Number of cells = 134289
    Number of points = 149638
    Number of faces shared with processor 264 = 6056
    Number of faces shared with processor 108 = 5739
    Number of faces shared with processor 113 = 992
    Number of faces shared with processor 116 = 5681
    Number of processor patches = 4
    Number of processor faces = 18468
    Number of boundary faces = 9208

Processor 113
    Number of cells = 69286
    Number of points = 78027
    Number of faces shared with processor 265 = 2682
    Number of faces shared with processor 269 = 1
    Number of faces shared with processor 109 = 2897
    Number of faces shared with processor 112 = 992
    Number of faces shared with processor 114 = 1095
    Number of faces shared with processor 116 = 1
    Number of faces shared with processor 117 = 2912
    Number of processor patches = 7
    Number of processor faces = 10580
    Number of boundary faces = 4319

Processor 114
    Number of cells = 68276
    Number of points = 76729
    Number of faces shared with processor 266 = 2618
    Number of faces shared with processor 267 = 20
    Number of faces shared with processor 109 = 1
    Number of faces shared with processor 110 = 2837
    Number of faces shared with processor 113 = 1095
    Number of faces shared with processor 115 = 1131
    Number of faces shared with processor 118 = 2802
    Number of processor patches = 7
    Number of processor faces = 10504
    Number of boundary faces = 4259

Processor 115
    Number of cells = 151343
    Number of points = 168178
    Number of faces shared with processor 267 = 6501
    Number of faces shared with processor 111 = 6263
    Number of faces shared with processor 114 = 1131
    Number of faces shared with processor 119 = 6372
    Number of processor patches = 4
    Number of processor faces = 20267
    Number of boundary faces = 10167

Processor 116
    Number of cells = 98095
    Number of points = 110437
    Number of faces shared with processor 264 = 126
    Number of faces shared with processor 268 = 1570
    Number of faces shared with processor 272 = 16
    Number of faces shared with processor 112 = 5681
    Number of faces shared with processor 113 = 1
    Number of faces shared with processor 117 = 463
    Number of faces shared with processor 120 = 7020
    Number of faces shared with processor 121 = 1
    Number of processor patches = 8
    Number of processor faces = 14878
    Number of boundary faces = 5475

Processor 117
    Number of cells = 78737
    Number of points = 87043
    Number of faces shared with processor 269 = 1923
    Number of faces shared with processor 273 = 2
    Number of faces shared with processor 113 = 2912
    Number of faces shared with processor 116 = 463
    Number of faces shared with processor 118 = 586
    Number of faces shared with processor 121 = 4966
    Number of processor patches = 6
    Number of processor faces = 10852
    Number of boundary faces = 3340

Processor 118
    Number of cells = 79153
    Number of points = 87391
    Number of faces shared with processor 270 = 1986
    Number of faces shared with processor 114 = 2802
    Number of faces shared with processor 117 = 586
    Number of faces shared with processor 119 = 576
    Number of faces shared with processor 122 = 4674
    Number of processor patches = 5
    Number of processor faces = 10624
    Number of boundary faces = 3298

Processor 119
    Number of cells = 122412
    Number of points = 134412
    Number of faces shared with processor 271 = 2097
    Number of faces shared with processor 275 = 4
    Number of faces shared with processor 115 = 6372
    Number of faces shared with processor 118 = 576
    Number of faces shared with processor 123 = 6792
    Number of processor patches = 5
    Number of processor faces = 15841
    Number of boundary faces = 6725

Processor 120
    Number of cells = 114932
    Number of points = 128737
    Number of faces shared with processor 268 = 47
    Number of faces shared with processor 272 = 2581
    Number of faces shared with processor 276 = 19
    Number of faces shared with processor 116 = 7020
    Number of faces shared with processor 121 = 439
    Number of faces shared with processor 124 = 7870
    Number of processor patches = 6
    Number of processor faces = 17976
    Number of boundary faces = 9635

Processor 121
    Number of cells = 60606
    Number of points = 68127
    Number of faces shared with processor 273 = 1787
    Number of faces shared with processor 116 = 1
    Number of faces shared with processor 117 = 4966
    Number of faces shared with processor 120 = 439
    Number of faces shared with processor 122 = 396
    Number of faces shared with processor 125 = 4713
    Number of processor patches = 6
    Number of processor faces = 12302
    Number of boundary faces = 2587

Processor 122
    Number of cells = 56202
    Number of points = 63176
    Number of faces shared with processor 270 = 2
    Number of faces shared with processor 274 = 1719
    Number of faces shared with processor 275 = 1
    Number of faces shared with processor 118 = 4674
    Number of faces shared with processor 121 = 396
    Number of faces shared with processor 123 = 390
    Number of faces shared with processor 126 = 4686
    Number of processor patches = 7
    Number of processor faces = 11868
    Number of boundary faces = 1704

Processor 123
    Number of cells = 70138
    Number of points = 80723
    Number of faces shared with processor 271 = 14
    Number of faces shared with processor 275 = 1410
    Number of faces shared with processor 119 = 6792
    Number of faces shared with processor 122 = 390
    Number of faces shared with processor 127 = 6861
    Number of processor patches = 5
    Number of processor faces = 15467
    Number of boundary faces = 3514

Processor 124
    Number of cells = 90994
    Number of points = 102013
    Number of faces shared with processor 128 = 6403
    Number of faces shared with processor 276 = 479
    Number of faces shared with processor 120 = 7870
    Number of faces shared with processor 125 = 345
    Number of processor patches = 4
    Number of processor faces = 15097
    Number of boundary faces = 7941

Processor 125
    Number of cells = 70795
    Number of points = 78435
    Number of faces shared with processor 129 = 4719
    Number of faces shared with processor 277 = 1995
    Number of faces shared with processor 121 = 4713
    Number of faces shared with processor 124 = 345
    Number of faces shared with processor 126 = 495
    Number of processor patches = 5
    Number of processor faces = 12267
    Number of boundary faces = 2728

Processor 126
    Number of cells = 70290
    Number of points = 77792
    Number of faces shared with processor 130 = 4686
    Number of faces shared with processor 278 = 2130
    Number of faces shared with processor 122 = 4686
    Number of faces shared with processor 125 = 495
    Number of faces shared with processor 127 = 495
    Number of processor patches = 5
    Number of processor faces = 12492
    Number of boundary faces = 2130

Processor 127
    Number of cells = 88252
    Number of points = 100408
    Number of faces shared with processor 131 = 7167
    Number of faces shared with processor 275 = 20
    Number of faces shared with processor 279 = 1791
    Number of faces shared with processor 283 = 19
    Number of faces shared with processor 123 = 6861
    Number of faces shared with processor 126 = 495
    Number of processor patches = 6
    Number of processor faces = 16353
    Number of boundary faces = 4326

Processor 128
    Number of cells = 84688
    Number of points = 95378
    Number of faces shared with processor 129 = 345
    Number of faces shared with processor 132 = 6310
    Number of faces shared with processor 280 = 472
    Number of faces shared with processor 124 = 6403
    Number of processor patches = 4
    Number of processor faces = 13530
    Number of boundary faces = 7058

Processor 129
    Number of cells = 70701
    Number of points = 78318
    Number of faces shared with processor 128 = 345
    Number of faces shared with processor 130 = 495
    Number of faces shared with processor 133 = 4711
    Number of faces shared with processor 281 = 1985
    Number of faces shared with processor 125 = 4719
    Number of processor patches = 5
    Number of processor faces = 12255
    Number of boundary faces = 2739

Processor 130
    Number of cells = 71222
    Number of points = 78797
    Number of faces shared with processor 129 = 495
    Number of faces shared with processor 131 = 528
    Number of faces shared with processor 134 = 4745
    Number of faces shared with processor 282 = 2142
    Number of faces shared with processor 286 = 1
    Number of faces shared with processor 126 = 4686
    Number of processor patches = 6
    Number of processor faces = 12597
    Number of boundary faces = 2169

Processor 131
    Number of cells = 93143
    Number of points = 105470
    Number of faces shared with processor 130 = 528
    Number of faces shared with processor 135 = 7142
    Number of faces shared with processor 279 = 2
    Number of faces shared with processor 283 = 1773
    Number of faces shared with processor 287 = 1
    Number of faces shared with processor 127 = 7167
    Number of processor patches = 6
    Number of processor faces = 16613
    Number of boundary faces = 4603

Processor 132
    Number of cells = 83547
    Number of points = 94104
    Number of faces shared with processor 128 = 6310
    Number of faces shared with processor 133 = 345
    Number of faces shared with processor 136 = 6418
    Number of faces shared with processor 284 = 483
    Number of faces shared with processor 288 = 1
    Number of processor patches = 5
    Number of processor faces = 13557
    Number of boundary faces = 6962

Processor 133
    Number of cells = 70735
    Number of points = 78388
    Number of faces shared with processor 129 = 4711
    Number of faces shared with processor 132 = 345
    Number of faces shared with processor 134 = 508
    Number of faces shared with processor 137 = 4713
    Number of faces shared with processor 285 = 1978
    Number of processor patches = 5
    Number of processor faces = 12255
    Number of boundary faces = 2758

Processor 134
    Number of cells = 73854
    Number of points = 81519
    Number of faces shared with processor 130 = 4745
    Number of faces shared with processor 133 = 508
    Number of faces shared with processor 135 = 495
    Number of faces shared with processor 137 = 1
    Number of faces shared with processor 138 = 4724
    Number of faces shared with processor 286 = 2239
    Number of faces shared with processor 290 = 1
    Number of processor patches = 7
    Number of processor faces = 12713
    Number of boundary faces = 2233

Processor 135
    Number of cells = 88749
    Number of points = 100985
    Number of faces shared with processor 131 = 7142
    Number of faces shared with processor 134 = 495
    Number of faces shared with processor 139 = 6898
    Number of faces shared with processor 287 = 1818
    Number of faces shared with processor 291 = 1
    Number of processor patches = 5
    Number of processor faces = 16354
    Number of boundary faces = 4328

Processor 136
    Number of cells = 84323
    Number of points = 95106
    Number of faces shared with processor 132 = 6418
    Number of faces shared with processor 137 = 368
    Number of faces shared with processor 140 = 5981
    Number of faces shared with processor 144 = 452
    Number of faces shared with processor 288 = 461
    Number of processor patches = 5
    Number of processor faces = 13680
    Number of boundary faces = 7013

Processor 137
    Number of cells = 75000
    Number of points = 82794
    Number of faces shared with processor 133 = 4713
    Number of faces shared with processor 134 = 1
    Number of faces shared with processor 136 = 368
    Number of faces shared with processor 138 = 514
    Number of faces shared with processor 141 = 4737
    Number of faces shared with processor 289 = 2089
    Number of processor patches = 6
    Number of processor faces = 12422
    Number of boundary faces = 2914

Processor 138
    Number of cells = 70435
    Number of points = 77976
    Number of faces shared with processor 134 = 4724
    Number of faces shared with processor 137 = 514
    Number of faces shared with processor 139 = 513
    Number of faces shared with processor 142 = 4676
    Number of faces shared with processor 143 = 1
    Number of faces shared with processor 290 = 2139
    Number of faces shared with processor 291 = 1
    Number of processor patches = 7
    Number of processor faces = 12568
    Number of boundary faces = 2130

Processor 139
    Number of cells = 88328
    Number of points = 100430
    Number of faces shared with processor 135 = 6898
    Number of faces shared with processor 138 = 513
    Number of faces shared with processor 143 = 7186
    Number of faces shared with processor 291 = 1755
    Number of faces shared with processor 295 = 2
    Number of processor patches = 5
    Number of processor faces = 16354
    Number of boundary faces = 4330

Processor 140
    Number of cells = 106880
    Number of points = 119065
    Number of faces shared with processor 136 = 5981
    Number of faces shared with processor 141 = 460
    Number of faces shared with processor 144 = 7383
    Number of faces shared with processor 148 = 28
    Number of faces shared with processor 288 = 17
    Number of faces shared with processor 292 = 846
    Number of faces shared with processor 296 = 1
    Number of processor patches = 7
    Number of processor faces = 14716
    Number of boundary faces = 10146

Processor 141
    Number of cells = 66193
    Number of points = 73874
    Number of faces shared with processor 137 = 4737
    Number of faces shared with processor 140 = 460
    Number of faces shared with processor 142 = 462
    Number of faces shared with processor 145 = 4808
    Number of faces shared with processor 293 = 1933
    Number of faces shared with processor 297 = 5
    Number of processor patches = 6
    Number of processor faces = 12405
    Number of boundary faces = 2817

Processor 142
    Number of cells = 65382
    Number of points = 72698
    Number of faces shared with processor 138 = 4676
    Number of faces shared with processor 141 = 462
    Number of faces shared with processor 143 = 488
    Number of faces shared with processor 146 = 4662
    Number of faces shared with processor 147 = 2
    Number of faces shared with processor 294 = 1974
    Number of processor patches = 6
    Number of processor faces = 12264
    Number of boundary faces = 1988

Processor 143
    Number of cells = 82144
    Number of points = 94027
    Number of faces shared with processor 138 = 1
    Number of faces shared with processor 139 = 7186
    Number of faces shared with processor 142 = 488
    Number of faces shared with processor 147 = 6863
    Number of faces shared with processor 151 = 310
    Number of faces shared with processor 295 = 1606
    Number of faces shared with processor 299 = 1
    Number of processor patches = 7
    Number of processor faces = 16455
    Number of boundary faces = 4027

Processor 144
    Number of cells = 95723
    Number of points = 108431
    Number of faces shared with processor 136 = 452
    Number of faces shared with processor 140 = 7383
    Number of faces shared with processor 145 = 306
    Number of faces shared with processor 148 = 5654
    Number of faces shared with processor 296 = 2663
    Number of processor patches = 5
    Number of processor faces = 16458
    Number of boundary faces = 6252

Processor 145
    Number of cells = 62233
    Number of points = 69654
    Number of faces shared with processor 141 = 4808
    Number of faces shared with processor 144 = 306
    Number of faces shared with processor 146 = 429
    Number of faces shared with processor 149 = 4544
    Number of faces shared with processor 297 = 1870
    Number of processor patches = 5
    Number of processor faces = 11957
    Number of boundary faces = 1966

Processor 146
    Number of cells = 64051
    Number of points = 71320
    Number of faces shared with processor 142 = 4662
    Number of faces shared with processor 145 = 429
    Number of faces shared with processor 147 = 475
    Number of faces shared with processor 150 = 4712
    Number of faces shared with processor 298 = 1924
    Number of faces shared with processor 302 = 1
    Number of processor patches = 6
    Number of processor faces = 12203
    Number of boundary faces = 1955

Processor 147
    Number of cells = 82776
    Number of points = 94387
    Number of faces shared with processor 142 = 2
    Number of faces shared with processor 143 = 6863
    Number of faces shared with processor 146 = 475
    Number of faces shared with processor 151 = 6891
    Number of faces shared with processor 299 = 1633
    Number of faces shared with processor 303 = 1
    Number of processor patches = 6
    Number of processor faces = 15865
    Number of boundary faces = 4017

Processor 148
    Number of cells = 131977
    Number of points = 143022
    Number of faces shared with processor 140 = 28
    Number of faces shared with processor 144 = 5654
    Number of faces shared with processor 149 = 781
    Number of faces shared with processor 296 = 19
    Number of faces shared with processor 300 = 4170
    Number of processor patches = 5
    Number of processor faces = 10652
    Number of boundary faces = 9057

Processor 149
    Number of cells = 76926
    Number of points = 84930
    Number of faces shared with processor 145 = 4544
    Number of faces shared with processor 148 = 781
    Number of faces shared with processor 150 = 853
    Number of faces shared with processor 300 = 3
    Number of faces shared with processor 301 = 2180
    Number of processor patches = 5
    Number of processor faces = 8361
    Number of boundary faces = 4460

Processor 150
    Number of cells = 73276
    Number of points = 80777
    Number of faces shared with processor 146 = 4712
    Number of faces shared with processor 149 = 853
    Number of faces shared with processor 151 = 909
    Number of faces shared with processor 302 = 2067
    Number of faces shared with processor 303 = 10
    Number of processor patches = 5
    Number of processor faces = 8551
    Number of boundary faces = 4300

Processor 151
    Number of cells = 149236
    Number of points = 161224
    Number of faces shared with processor 143 = 310
    Number of faces shared with processor 147 = 6891
    Number of faces shared with processor 150 = 909
    Number of faces shared with processor 299 = 18
    Number of faces shared with processor 302 = 1
    Number of faces shared with processor 303 = 4479
    Number of processor patches = 6
    Number of processor faces = 12608
    Number of boundary faces = 9844

Processor 152
    Number of cells = 54753
    Number of points = 66265
    Number of faces shared with processor 0 = 4211
    Number of faces shared with processor 4 = 1
    Number of faces shared with processor 153 = 986
    Number of faces shared with processor 156 = 5331
    Number of faces shared with processor 157 = 1
    Number of faces shared with processor 160 = 370
    Number of processor patches = 6
    Number of processor faces = 10900
    Number of boundary faces = 2006

Processor 153
    Number of cells = 47521
    Number of points = 59387
    Number of faces shared with processor 1 = 2077
    Number of faces shared with processor 2 = 1
    Number of faces shared with processor 152 = 986
    Number of faces shared with processor 154 = 1175
    Number of faces shared with processor 157 = 8607
    Number of faces shared with processor 158 = 2
    Number of faces shared with processor 161 = 45
    Number of processor patches = 7
    Number of processor faces = 12893
    Number of boundary faces = 234

Processor 154
    Number of cells = 52078
    Number of points = 64300
    Number of faces shared with processor 2 = 2133
    Number of faces shared with processor 3 = 1
    Number of faces shared with processor 153 = 1175
    Number of faces shared with processor 155 = 1185
    Number of faces shared with processor 158 = 8800
    Number of faces shared with processor 162 = 40
    Number of processor patches = 6
    Number of processor faces = 13334
    Number of boundary faces = 208

Processor 155
    Number of cells = 86800
    Number of points = 101069
    Number of faces shared with processor 3 = 4758
    Number of faces shared with processor 7 = 2
    Number of faces shared with processor 154 = 1185
    Number of faces shared with processor 158 = 2
    Number of faces shared with processor 159 = 7747
    Number of faces shared with processor 163 = 192
    Number of processor patches = 6
    Number of processor faces = 13886
    Number of boundary faces = 1616

Processor 156
    Number of cells = 90552
    Number of points = 106276
    Number of faces shared with processor 4 = 2053
    Number of faces shared with processor 8 = 22
    Number of faces shared with processor 152 = 5331
    Number of faces shared with processor 157 = 808
    Number of faces shared with processor 160 = 9533
    Number of faces shared with processor 164 = 133
    Number of processor patches = 6
    Number of processor faces = 17880
    Number of boundary faces = 4326

Processor 157
    Number of cells = 115809
    Number of points = 128652
    Number of faces shared with processor 1 = 1
    Number of faces shared with processor 5 = 2045
    Number of faces shared with processor 152 = 1
    Number of faces shared with processor 153 = 8607
    Number of faces shared with processor 156 = 808
    Number of faces shared with processor 158 = 887
    Number of faces shared with processor 160 = 2
    Number of faces shared with processor 161 = 8790
    Number of processor patches = 8
    Number of processor faces = 21141
    Number of boundary faces = 1289

Processor 158
    Number of cells = 112892
    Number of points = 124786
    Number of faces shared with processor 6 = 1988
    Number of faces shared with processor 153 = 2
    Number of faces shared with processor 154 = 8800
    Number of faces shared with processor 155 = 2
    Number of faces shared with processor 157 = 887
    Number of faces shared with processor 159 = 887
    Number of faces shared with processor 161 = 1
    Number of faces shared with processor 162 = 8730
    Number of faces shared with processor 163 = 1
    Number of processor patches = 9
    Number of processor faces = 21298
    Number of boundary faces = 0

Processor 159
    Number of cells = 63438
    Number of points = 73985
    Number of faces shared with processor 7 = 1623
    Number of faces shared with processor 155 = 7747
    Number of faces shared with processor 158 = 887
    Number of faces shared with processor 163 = 7249
    Number of faces shared with processor 167 = 241
    Number of processor patches = 5
    Number of processor faces = 17747
    Number of boundary faces = 38

Processor 160
    Number of cells = 82228
    Number of points = 92634
    Number of faces shared with processor 8 = 1325
    Number of faces shared with processor 12 = 2
    Number of faces shared with processor 152 = 370
    Number of faces shared with processor 156 = 9533
    Number of faces shared with processor 157 = 2
    Number of faces shared with processor 161 = 281
    Number of faces shared with processor 164 = 6030
    Number of processor patches = 7
    Number of processor faces = 17543
    Number of boundary faces = 7619

Processor 161
    Number of cells = 107438
    Number of points = 119377
    Number of faces shared with processor 5 = 1
    Number of faces shared with processor 9 = 1816
    Number of faces shared with processor 153 = 45
    Number of faces shared with processor 157 = 8790
    Number of faces shared with processor 158 = 1
    Number of faces shared with processor 160 = 281
    Number of faces shared with processor 162 = 828
    Number of faces shared with processor 164 = 2
    Number of faces shared with processor 165 = 8801
    Number of faces shared with processor 166 = 2
    Number of processor patches = 10
    Number of processor faces = 20567
    Number of boundary faces = 952

Processor 162
    Number of cells = 105843
    Number of points = 117786
    Number of faces shared with processor 10 = 1888
    Number of faces shared with processor 154 = 40
    Number of faces shared with processor 158 = 8730
    Number of faces shared with processor 161 = 828
    Number of faces shared with processor 163 = 870
    Number of faces shared with processor 165 = 1
    Number of faces shared with processor 166 = 9100
    Number of faces shared with processor 167 = 1
    Number of processor patches = 8
    Number of processor faces = 21458
    Number of boundary faces = 8

Processor 163
    Number of cells = 62519
    Number of points = 72826
    Number of faces shared with processor 11 = 1592
    Number of faces shared with processor 155 = 192
    Number of faces shared with processor 158 = 1
    Number of faces shared with processor 159 = 7249
    Number of faces shared with processor 162 = 870
    Number of faces shared with processor 166 = 3
    Number of faces shared with processor 167 = 7744
    Number of processor patches = 7
    Number of processor faces = 17651
    Number of boundary faces = 34

Processor 164
    Number of cells = 50605
    Number of points = 60683
    Number of faces shared with processor 12 = 442
    Number of faces shared with processor 156 = 133
    Number of faces shared with processor 160 = 6030
[...]
    in file db/dynamicLibrary/dlLibraryTable/dlLibraryTable.C at line 188
    Could not load "libpetscFoam.so"
libpetscFoam.so: cannot open shared object file: No such file or directory
Processor 241: field transfer
--> FOAM Warning : 
    From void* Foam::dlLibraryTable::openLibrary(const Foam::fileName&, bool)
    in file db/dynamicLibrary/dlLibraryTable/dlLibraryTable.C at line 188
    Could not load "libpetscFoam.so"
libpetscFoam.so: cannot open shared object file: No such file or directory
Processor 242: field transfer
--> FOAM Warning : 
    From void* Foam::dlLibraryTable::openLibrary(const Foam::fileName&, bool)
    in file db/dynamicLibrary/dlLibraryTable/dlLibraryTable.C at line 188
    Could not load "libpetscFoam.so"
libpetscFoam.so: cannot open shared object file: No such file or directory
Processor 243: field transfer
--> FOAM Warning : 
    From void* Foam::dlLibraryTable::openLibrary(const Foam::fileName&, bool)
    in file db/dynamicLibrary/dlLibraryTable/dlLibraryTable.C at line 188
    Could not load "libpetscFoam.so"
libpetscFoam.so: cannot open shared object file: No such file or directory
Processor 244: field transfer
--> FOAM Warning : 
    From void* Foam::dlLibraryTable::openLibrary(const Foam::fileName&, bool)
    in file db/dynamicLibrary/dlLibraryTable/dlLibraryTable.C at line 188
    Could not load "libpetscFoam.so"
libpetscFoam.so: cannot open shared object file: No such file or directory
Processor 245: field transfer
--> FOAM Warning : 
    From void* Foam::dlLibraryTable::openLibrary(const Foam::fileName&, bool)
    in file db/dynamicLibrary/dlLibraryTable/dlLibraryTable.C at line 188
    Could not load "libpetscFoam.so"
libpetscFoam.so: cannot open shared object file: No such file or directory
Processor 246: field transfer
--> FOAM Warning : 
    From void* Foam::dlLibraryTable::openLibrary(const Foam::fileName&, bool)
    in file db/dynamicLibrary/dlLibraryTable/dlLibraryTable.C at line 188
    Could not load "libpetscFoam.so"
libpetscFoam.so: cannot open shared object file: No such file or directory
Processor 247: field transfer
--> FOAM Warning : 
    From void* Foam::dlLibraryTable::openLibrary(const Foam::fileName&, bool)
    in file db/dynamicLibrary/dlLibraryTable/dlLibraryTable.C at line 188
    Could not load "libpetscFoam.so"
libpetscFoam.so: cannot open shared object file: No such file or directory
Processor 248: field transfer
--> FOAM Warning : 
    From void* Foam::dlLibraryTable::openLibrary(const Foam::fileName&, bool)
    in file db/dynamicLibrary/dlLibraryTable/dlLibraryTable.C at line 188
    Could not load "libpetscFoam.so"
libpetscFoam.so: cannot open shared object file: No such file or directory
Processor 249: field transfer
--> FOAM Warning : 
    From void* Foam::dlLibraryTable::openLibrary(const Foam::fileName&, bool)
    in file db/dynamicLibrary/dlLibraryTable/dlLibraryTable.C at line 188
    Could not load "libpetscFoam.so"
libpetscFoam.so: cannot open shared object file: No such file or directory
Processor 250: field transfer
--> FOAM Warning : 
    From void* Foam::dlLibraryTable::openLibrary(const Foam::fileName&, bool)
    in file db/dynamicLibrary/dlLibraryTable/dlLibraryTable.C at line 188
    Could not load "libpetscFoam.so"
libpetscFoam.so: cannot open shared object file: No such file or directory
Processor 251: field transfer
--> FOAM Warning : 
    From void* Foam::dlLibraryTable::openLibrary(const Foam::fileName&, bool)
    in file db/dynamicLibrary/dlLibraryTable/dlLibraryTable.C at line 188
    Could not load "libpetscFoam.so"
libpetscFoam.so: cannot open shared object file: No such file or directory
Processor 252: field transfer
--> FOAM Warning : 
    From void* Foam::dlLibraryTable::openLibrary(const Foam::fileName&, bool)
    in file db/dynamicLibrary/dlLibraryTable/dlLibraryTable.C at line 188
    Could not load "libpetscFoam.so"
libpetscFoam.so: cannot open shared object file: No such file or directory
Processor 253: field transfer
--> FOAM Warning : 
    From void* Foam::dlLibraryTable::openLibrary(const Foam::fileName&, bool)
    in file db/dynamicLibrary/dlLibraryTable/dlLibraryTable.C at line 188
    Could not load "libpetscFoam.so"
libpetscFoam.so: cannot open shared object file: No such file or directory
Processor 254: field transfer
--> FOAM Warning : 
    From void* Foam::dlLibraryTable::openLibrary(const Foam::fileName&, bool)
    in file db/dynamicLibrary/dlLibraryTable/dlLibraryTable.C at line 188
    Could not load "libpetscFoam.so"
libpetscFoam.so: cannot open shared object file: No such file or directory
Processor 255: field transfer
--> FOAM Warning : 
    From void* Foam::dlLibraryTable::openLibrary(const Foam::fileName&, bool)
    in file db/dynamicLibrary/dlLibraryTable/dlLibraryTable.C at line 188
    Could not load "libpetscFoam.so"
libpetscFoam.so: cannot open shared object file: No such file or directory
Processor 256: field transfer
--> FOAM Warning : 
    From void* Foam::dlLibraryTable::openLibrary(const Foam::fileName&, bool)
    in file db/dynamicLibrary/dlLibraryTable/dlLibraryTable.C at line 188
    Could not load "libpetscFoam.so"
libpetscFoam.so: cannot open shared object file: No such file or directory
Processor 257: field transfer
--> FOAM Warning : 
    From void* Foam::dlLibraryTable::openLibrary(const Foam::fileName&, bool)
    in file db/dynamicLibrary/dlLibraryTable/dlLibraryTable.C at line 188
    Could not load "libpetscFoam.so"
libpetscFoam.so: cannot open shared object file: No such file or directory
Processor 258: field transfer
--> FOAM Warning : 
    From void* Foam::dlLibraryTable::openLibrary(const Foam::fileName&, bool)
    in file db/dynamicLibrary/dlLibraryTable/dlLibraryTable.C at line 188
    Could not load "libpetscFoam.so"
libpetscFoam.so: cannot open shared object file: No such file or directory
Processor 259: field transfer
--> FOAM Warning : 
    From void* Foam::dlLibraryTable::openLibrary(const Foam::fileName&, bool)
    in file db/dynamicLibrary/dlLibraryTable/dlLibraryTable.C at line 188
    Could not load "libpetscFoam.so"
libpetscFoam.so: cannot open shared object file: No such file or directory
Processor 260: field transfer
--> FOAM Warning : 
    From void* Foam::dlLibraryTable::openLibrary(const Foam::fileName&, bool)
    in file db/dynamicLibrary/dlLibraryTable/dlLibraryTable.C at line 188
    Could not load "libpetscFoam.so"
libpetscFoam.so: cannot open shared object file: No such file or directory
Processor 261: field transfer
--> FOAM Warning : 
    From void* Foam::dlLibraryTable::openLibrary(const Foam::fileName&, bool)
    in file db/dynamicLibrary/dlLibraryTable/dlLibraryTable.C at line 188
    Could not load "libpetscFoam.so"
libpetscFoam.so: cannot open shared object file: No such file or directory
Processor 262: field transfer
--> FOAM Warning : 
    From void* Foam::dlLibraryTable::openLibrary(const Foam::fileName&, bool)
    in file db/dynamicLibrary/dlLibraryTable/dlLibraryTable.C at line 188
    Could not load "libpetscFoam.so"
libpetscFoam.so: cannot open shared object file: No such file or directory
Processor 263: field transfer
--> FOAM Warning : 
    From void* Foam::dlLibraryTable::openLibrary(const Foam::fileName&, bool)
    in file db/dynamicLibrary/dlLibraryTable/dlLibraryTable.C at line 188
    Could not load "libpetscFoam.so"
libpetscFoam.so: cannot open shared object file: No such file or directory
Processor 264: field transfer
--> FOAM Warning : 
    From void* Foam::dlLibraryTable::openLibrary(const Foam::fileName&, bool)
    in file db/dynamicLibrary/dlLibraryTable/dlLibraryTable.C at line 188
    Could not load "libpetscFoam.so"
libpetscFoam.so: cannot open shared object file: No such file or directory
Processor 265: field transfer
--> FOAM Warning : 
    From void* Foam::dlLibraryTable::openLibrary(const Foam::fileName&, bool)
    in file db/dynamicLibrary/dlLibraryTable/dlLibraryTable.C at line 188
    Could not load "libpetscFoam.so"
libpetscFoam.so: cannot open shared object file: No such file or directory
Processor 266: field transfer
--> FOAM Warning : 
    From void* Foam::dlLibraryTable::openLibrary(const Foam::fileName&, bool)
    in file db/dynamicLibrary/dlLibraryTable/dlLibraryTable.C at line 188
    Could not load "libpetscFoam.so"
libpetscFoam.so: cannot open shared object file: No such file or directory
Processor 267: field transfer
--> FOAM Warning : 
    From void* Foam::dlLibraryTable::openLibrary(const Foam::fileName&, bool)
    in file db/dynamicLibrary/dlLibraryTable/dlLibraryTable.C at line 188
    Could not load "libpetscFoam.so"
libpetscFoam.so: cannot open shared object file: No such file or directory
Processor 268: field transfer
--> FOAM Warning : 
    From void* Foam::dlLibraryTable::openLibrary(const Foam::fileName&, bool)
    in file db/dynamicLibrary/dlLibraryTable/dlLibraryTable.C at line 188
    Could not load "libpetscFoam.so"
libpetscFoam.so: cannot open shared object file: No such file or directory
Processor 269: field transfer
--> FOAM Warning : 
    From void* Foam::dlLibraryTable::openLibrary(const Foam::fileName&, bool)
    in file db/dynamicLibrary/dlLibraryTable/dlLibraryTable.C at line 188
    Could not load "libpetscFoam.so"
libpetscFoam.so: cannot open shared object file: No such file or directory
Processor 270: field transfer
--> FOAM Warning : 
    From void* Foam::dlLibraryTable::openLibrary(const Foam::fileName&, bool)
    in file db/dynamicLibrary/dlLibraryTable/dlLibraryTable.C at line 188
    Could not load "libpetscFoam.so"
libpetscFoam.so: cannot open shared object file: No such file or directory
Processor 271: field transfer
--> FOAM Warning : 
    From void* Foam::dlLibraryTable::openLibrary(const Foam::fileName&, bool)
    in file db/dynamicLibrary/dlLibraryTable/dlLibraryTable.C at line 188
    Could not load "libpetscFoam.so"
libpetscFoam.so: cannot open shared object file: No such file or directory
Processor 272: field transfer
--> FOAM Warning : 
    From void* Foam::dlLibraryTable::openLibrary(const Foam::fileName&, bool)
    in file db/dynamicLibrary/dlLibraryTable/dlLibraryTable.C at line 188
    Could not load "libpetscFoam.so"
libpetscFoam.so: cannot open shared object file: No such file or directory
Processor 273: field transfer
--> FOAM Warning : 
    From void* Foam::dlLibraryTable::openLibrary(const Foam::fileName&, bool)
    in file db/dynamicLibrary/dlLibraryTable/dlLibraryTable.C at line 188
    Could not load "libpetscFoam.so"
libpetscFoam.so: cannot open shared object file: No such file or directory
Processor 274: field transfer
--> FOAM Warning : 
    From void* Foam::dlLibraryTable::openLibrary(const Foam::fileName&, bool)
    in file db/dynamicLibrary/dlLibraryTable/dlLibraryTable.C at line 188
    Could not load "libpetscFoam.so"
libpetscFoam.so: cannot open shared object file: No such file or directory
Processor 275: field transfer
--> FOAM Warning : 
    From void* Foam::dlLibraryTable::openLibrary(const Foam::fileName&, bool)
    in file db/dynamicLibrary/dlLibraryTable/dlLibraryTable.C at line 188
    Could not load "libpetscFoam.so"
libpetscFoam.so: cannot open shared object file: No such file or directory
Processor 276: field transfer
--> FOAM Warning : 
    From void* Foam::dlLibraryTable::openLibrary(const Foam::fileName&, bool)
    in file db/dynamicLibrary/dlLibraryTable/dlLibraryTable.C at line 188
    Could not load "libpetscFoam.so"
libpetscFoam.so: cannot open shared object file: No such file or directory
Processor 277: field transfer
--> FOAM Warning : 
    From void* Foam::dlLibraryTable::openLibrary(const Foam::fileName&, bool)
    in file db/dynamicLibrary/dlLibraryTable/dlLibraryTable.C at line 188
    Could not load "libpetscFoam.so"
libpetscFoam.so: cannot open shared object file: No such file or directory
Processor 278: field transfer
--> FOAM Warning : 
    From void* Foam::dlLibraryTable::openLibrary(const Foam::fileName&, bool)
    in file db/dynamicLibrary/dlLibraryTable/dlLibraryTable.C at line 188
    Could not load "libpetscFoam.so"
libpetscFoam.so: cannot open shared object file: No such file or directory
Processor 279: field transfer
--> FOAM Warning : 
    From void* Foam::dlLibraryTable::openLibrary(const Foam::fileName&, bool)
    in file db/dynamicLibrary/dlLibraryTable/dlLibraryTable.C at line 188
    Could not load "libpetscFoam.so"
libpetscFoam.so: cannot open shared object file: No such file or directory
Processor 280: field transfer
--> FOAM Warning : 
    From void* Foam::dlLibraryTable::openLibrary(const Foam::fileName&, bool)
    in file db/dynamicLibrary/dlLibraryTable/dlLibraryTable.C at line 188
    Could not load "libpetscFoam.so"
libpetscFoam.so: cannot open shared object file: No such file or directory
Processor 281: field transfer
--> FOAM Warning : 
    From void* Foam::dlLibraryTable::openLibrary(const Foam::fileName&, bool)
    in file db/dynamicLibrary/dlLibraryTable/dlLibraryTable.C at line 188
    Could not load "libpetscFoam.so"
libpetscFoam.so: cannot open shared object file: No such file or directory
Processor 282: field transfer
--> FOAM Warning : 
    From void* Foam::dlLibraryTable::openLibrary(const Foam::fileName&, bool)
    in file db/dynamicLibrary/dlLibraryTable/dlLibraryTable.C at line 188
    Could not load "libpetscFoam.so"
libpetscFoam.so: cannot open shared object file: No such file or directory
Processor 283: field transfer
--> FOAM Warning : 
    From void* Foam::dlLibraryTable::openLibrary(const Foam::fileName&, bool)
    in file db/dynamicLibrary/dlLibraryTable/dlLibraryTable.C at line 188
    Could not load "libpetscFoam.so"
libpetscFoam.so: cannot open shared object file: No such file or directory
Processor 284: field transfer
--> FOAM Warning : 
    From void* Foam::dlLibraryTable::openLibrary(const Foam::fileName&, bool)
    in file db/dynamicLibrary/dlLibraryTable/dlLibraryTable.C at line 188
    Could not load "libpetscFoam.so"
libpetscFoam.so: cannot open shared object file: No such file or directory
Processor 285: field transfer
--> FOAM Warning : 
    From void* Foam::dlLibraryTable::openLibrary(const Foam::fileName&, bool)
    in file db/dynamicLibrary/dlLibraryTable/dlLibraryTable.C at line 188
    Could not load "libpetscFoam.so"
libpetscFoam.so: cannot open shared object file: No such file or directory
Processor 286: field transfer
--> FOAM Warning : 
    From void* Foam::dlLibraryTable::openLibrary(const Foam::fileName&, bool)
    in file db/dynamicLibrary/dlLibraryTable/dlLibraryTable.C at line 188
    Could not load "libpetscFoam.so"
libpetscFoam.so: cannot open shared object file: No such file or directory
Processor 287: field transfer
--> FOAM Warning : 
    From void* Foam::dlLibraryTable::openLibrary(const Foam::fileName&, bool)
    in file db/dynamicLibrary/dlLibraryTable/dlLibraryTable.C at line 188
    Could not load "libpetscFoam.so"
libpetscFoam.so: cannot open shared object file: No such file or directory
Processor 288: field transfer
--> FOAM Warning : 
    From void* Foam::dlLibraryTable::openLibrary(const Foam::fileName&, bool)
    in file db/dynamicLibrary/dlLibraryTable/dlLibraryTable.C at line 188
    Could not load "libpetscFoam.so"
libpetscFoam.so: cannot open shared object file: No such file or directory
Processor 289: field transfer
--> FOAM Warning : 
    From void* Foam::dlLibraryTable::openLibrary(const Foam::fileName&, bool)
    in file db/dynamicLibrary/dlLibraryTable/dlLibraryTable.C at line 188
    Could not load "libpetscFoam.so"
libpetscFoam.so: cannot open shared object file: No such file or directory
Processor 290: field transfer
--> FOAM Warning : 
    From void* Foam::dlLibraryTable::openLibrary(const Foam::fileName&, bool)
    in file db/dynamicLibrary/dlLibraryTable/dlLibraryTable.C at line 188
    Could not load "libpetscFoam.so"
libpetscFoam.so: cannot open shared object file: No such file or directory
Processor 291: field transfer
--> FOAM Warning : 
    From void* Foam::dlLibraryTable::openLibrary(const Foam::fileName&, bool)
    in file db/dynamicLibrary/dlLibraryTable/dlLibraryTable.C at line 188
    Could not load "libpetscFoam.so"
libpetscFoam.so: cannot open shared object file: No such file or directory
Processor 292: field transfer
--> FOAM Warning : 
    From void* Foam::dlLibraryTable::openLibrary(const Foam::fileName&, bool)
    in file db/dynamicLibrary/dlLibraryTable/dlLibraryTable.C at line 188
    Could not load "libpetscFoam.so"
libpetscFoam.so: cannot open shared object file: No such file or directory
Processor 293: field transfer
--> FOAM Warning : 
    From void* Foam::dlLibraryTable::openLibrary(const Foam::fileName&, bool)
    in file db/dynamicLibrary/dlLibraryTable/dlLibraryTable.C at line 188
    Could not load "libpetscFoam.so"
libpetscFoam.so: cannot open shared object file: No such file or directory
Processor 294: field transfer
--> FOAM Warning : 
    From void* Foam::dlLibraryTable::openLibrary(const Foam::fileName&, bool)
    in file db/dynamicLibrary/dlLibraryTable/dlLibraryTable.C at line 188
    Could not load "libpetscFoam.so"
libpetscFoam.so: cannot open shared object file: No such file or directory
Processor 295: field transfer
--> FOAM Warning : 
    From void* Foam::dlLibraryTable::openLibrary(const Foam::fileName&, bool)
    in file db/dynamicLibrary/dlLibraryTable/dlLibraryTable.C at line 188
    Could not load "libpetscFoam.so"
libpetscFoam.so: cannot open shared object file: No such file or directory
Processor 296: field transfer
--> FOAM Warning : 
    From void* Foam::dlLibraryTable::openLibrary(const Foam::fileName&, bool)
    in file db/dynamicLibrary/dlLibraryTable/dlLibraryTable.C at line 188
    Could not load "libpetscFoam.so"
libpetscFoam.so: cannot open shared object file: No such file or directory
Processor 297: field transfer
--> FOAM Warning : 
    From void* Foam::dlLibraryTable::openLibrary(const Foam::fileName&, bool)
    in file db/dynamicLibrary/dlLibraryTable/dlLibraryTable.C at line 188
    Could not load "libpetscFoam.so"
libpetscFoam.so: cannot open shared object file: No such file or directory
Processor 298: field transfer
--> FOAM Warning : 
    From void* Foam::dlLibraryTable::openLibrary(const Foam::fileName&, bool)
    in file db/dynamicLibrary/dlLibraryTable/dlLibraryTable.C at line 188
    Could not load "libpetscFoam.so"
libpetscFoam.so: cannot open shared object file: No such file or directory
Processor 299: field transfer
--> FOAM Warning : 
    From void* Foam::dlLibraryTable::openLibrary(const Foam::fileName&, bool)
    in file db/dynamicLibrary/dlLibraryTable/dlLibraryTable.C at line 188
    Could not load "libpetscFoam.so"
libpetscFoam.so: cannot open shared object file: No such file or directory
Processor 300: field transfer
--> FOAM Warning : 
    From void* Foam::dlLibraryTable::openLibrary(const Foam::fileName&, bool)
    in file db/dynamicLibrary/dlLibraryTable/dlLibraryTable.C at line 188
    Could not load "libpetscFoam.so"
libpetscFoam.so: cannot open shared object file: No such file or directory
Processor 301: field transfer
--> FOAM Warning : 
    From void* Foam::dlLibraryTable::openLibrary(const Foam::fileName&, bool)
    in file db/dynamicLibrary/dlLibraryTable/dlLibraryTable.C at line 188
    Could not load "libpetscFoam.so"
libpetscFoam.so: cannot open shared object file: No such file or directory
Processor 302: field transfer
--> FOAM Warning : 
    From void* Foam::dlLibraryTable::openLibrary(const Foam::fileName&, bool)
    in file db/dynamicLibrary/dlLibraryTable/dlLibraryTable.C at line 188
    Could not load "libpetscFoam.so"
libpetscFoam.so: cannot open shared object file: No such file or directory
Processor 303: field transfer
--> FOAM Warning : 
    From void* Foam::dlLibraryTable::openLibrary(const Foam::fileName&, bool)
    in file db/dynamicLibrary/dlLibraryTable/dlLibraryTable.C at line 188
    Could not load "libpetscFoam.so"
libpetscFoam.so: cannot open shared object file: No such file or directory

End

