/*---------------------------------------------------------------------------*\
| =========                 |                                                 |
| \\      /  F ield         | OpenFOAM: The Open Source CFD Toolbox           |
|  \\    /   O peration     | Version:  2306                                  |
|   \\  /    A nd           | Website:  www.openfoam.com                      |
|    \\/     M anipulation  |                                                 |
\*---------------------------------------------------------------------------*/
Build  : a6e826bd55-20230630 OPENFOAM=2306 version=v2306
Arch   : "LSB;label=32;scalar=64"
Exec   : icoFoam -parallel -case /tmp/lidDrivenCavity/workspace/7647eddb4d187dcbee52e4dbd6e35028/case
Date   : Jan 09 2024
Time   : 21:17:56
Host   : nla-gpu2.ianm.kit.edu
PID    : 397486
I/O    : uncollated
Case   : /tmp/lidDrivenCavity/workspace/7647eddb4d187dcbee52e4dbd6e35028/case
nProcs : 8
Hosts  :
(
    (nla-gpu2.ianm.kit.edu 8)
)
Pstream initialized with:
    floatTransfer      : false
    nProcsSimpleSum    : 0
    nonBlockingExchange: 0 (tuning: 0)
    exchange algorithm : -1
    commsType          : nonBlocking
    polling iterations : 0
trapFpe: Floating point exception trapping enabled (FOAM_SIGFPE).
fileModificationChecking : Monitoring run-time modified files using timeStampMaster (fileModificationSkew 5, maxFileModificationPolls 20)
allowSystemOperations : Allowing user-supplied system call operations

// * * * * * * * * * * * * * * * * * * * * * * * * * * * * * * * * * * * * * //
Create time

--> FOAM Warning : 
    From void* Foam::dlLibraryTable::openLibrary(const Foam::fileName&, bool)
    in file db/dynamicLibrary/dlLibraryTable/dlLibraryTable.C at line 188
    Could not load "libpetscFoam.so"
libpetscFoam.so: cannot open shared object file: No such file or directory
Create mesh for time = 0


PISO: Operating solver in PISO mode

Reading transportProperties

Reading field p

Reading field U

Reading/calculating face flux field phi


Starting time loop

Time = 0.0005

Courant Number mean: 8.62851e-18 max: 8.67362e-15
[INFO] MatrixAssemblyU: 14.173 [ms]
DILUPBiCGStab:  Solving for Ux, Initial residual = 1, Final residual = 0.0025649, No Iterations 5
DILUPBiCGStab:  Solving for Uy:  solution singularity
DILUPBiCGStab:  Solving for Uz:  solution singularity
[INFO] MomentumPredictor: 60.898 [ms]
[INFO] MatrixAssemblyPI: 11.13 [ms]
[INFO] AdjustPhi: 1.029 [ms]
[INFO] ConstrainPressure: 0.011 [ms]
[INFO] MatrixAssemblyPII: 3.33 [ms]
GAMG:  Solving for p, Initial residual = 1, Final residual = 9.26573e-05, No Iterations 32
[INFO] SolveP: 394.062 [ms]
time step continuity errors : sum local = 1.99915e-08, global = 3.71933e-21, cumulative = 3.71933e-21
[INFO] ContinuityError: 2.364 [ms]
[INFO] CorrectBoundary: 0.092 [ms]
[INFO] PISOStep: 416.392 [ms]
[INFO] MatrixAssemblyPI: 10.706 [ms]
[INFO] AdjustPhi: 1.018 [ms]
[INFO] ConstrainPressure: 0.003 [ms]
[INFO] MatrixAssemblyPII: 3.434 [ms]
GAMG:  Solving for p, Initial residual = 0.731063, Final residual = 8.48849e-05, No Iterations 29
[INFO] SolveP: 337.153 [ms]
time step continuity errors : sum local = 2.42353e-08, global = -3.38902e-21, cumulative = 3.3031e-22
[INFO] ContinuityError: 2.263 [ms]
[INFO] CorrectBoundary: 0.072 [ms]
[INFO] PISOStep: 360.517 [ms]
[INFO] TimeStep: 854.613 [ms]
ExecutionTime = 1.17 s  ClockTime = 1 s

Time = 0.001

Courant Number mean: 0.0215342 max: 0.377097
[INFO] MatrixAssemblyU: 8.825 [ms]
DILUPBiCGStab:  Solving for Ux, Initial residual = 0.150354, Final residual = 0.00113131, No Iterations 5
DILUPBiCGStab:  Solving for Uy, Initial residual = 0.368164, Final residual = 0.00224403, No Iterations 5
DILUPBiCGStab:  Solving for Uz, Initial residual = 0.986106, Final residual = 0.00632036, No Iterations 5
[INFO] MomentumPredictor: 105.442 [ms]
[INFO] MatrixAssemblyPI: 12.404 [ms]
[INFO] AdjustPhi: 0.517 [ms]
[INFO] ConstrainPressure: 0.003 [ms]
[INFO] MatrixAssemblyPII: 3.303 [ms]
GAMG:  Solving for p, Initial residual = 0.690654, Final residual = 9.8517e-05, No Iterations 27
[INFO] SolveP: 314.383 [ms]
time step continuity errors : sum local = 3.14198e-08, global = -1.06551e-22, cumulative = 2.23759e-22
[INFO] ContinuityError: 2.286 [ms]
[INFO] CorrectBoundary: 0.588 [ms]
[INFO] PISOStep: 338.12 [ms]
[INFO] MatrixAssemblyPI: 11.216 [ms]
[INFO] AdjustPhi: 2.091 [ms]
[INFO] ConstrainPressure: 0.003 [ms]
[INFO] MatrixAssemblyPII: 3.233 [ms]
GAMG:  Solving for p, Initial residual = 0.619814, Final residual = 9.95293e-05, No Iterations 27
[INFO] SolveP: 306.639 [ms]
time step continuity errors : sum local = 3.24094e-08, global = -2.13316e-21, cumulative = -1.9094e-21
[INFO] ContinuityError: 2.196 [ms]
[INFO] CorrectBoundary: 0.074 [ms]
[INFO] PISOStep: 330.95 [ms]
[INFO] TimeStep: 785.263 [ms]
ExecutionTime = 1.96 s  ClockTime = 2 s

Time = 0.0015

Courant Number mean: 0.0324936 max: 0.441255
[INFO] MatrixAssemblyU: 9.176 [ms]
DILUPBiCGStab:  Solving for Ux, Initial residual = 0.0531002, Final residual = 0.000326349, No Iterations 5
DILUPBiCGStab:  Solving for Uy, Initial residual = 0.124681, Final residual = 0.000558108, No Iterations 5
DILUPBiCGStab:  Solving for Uz, Initial residual = 0.597133, Final residual = 0.00456085, No Iterations 5
[INFO] MomentumPredictor: 103.76 [ms]
[INFO] MatrixAssemblyPI: 11.047 [ms]
[INFO] AdjustPhi: 0.823 [ms]
[INFO] ConstrainPressure: 0.002 [ms]
[INFO] MatrixAssemblyPII: 3.271 [ms]
GAMG:  Solving for p, Initial residual = 0.632931, Final residual = 9.07414e-05, No Iterations 26
[INFO] SolveP: 299.801 [ms]
time step continuity errors : sum local = 2.09265e-08, global = 8.63848e-22, cumulative = -1.04555e-21
[INFO] ContinuityError: 2.18 [ms]
[INFO] CorrectBoundary: 0.535 [ms]
[INFO] PISOStep: 322.494 [ms]
[INFO] MatrixAssemblyPI: 11.753 [ms]
[INFO] AdjustPhi: 1.919 [ms]
[INFO] ConstrainPressure: 0.002 [ms]
[INFO] MatrixAssemblyPII: 3.326 [ms]
GAMG:  Solving for p, Initial residual = 0.580533, Final residual = 8.69997e-05, No Iterations 26
[INFO] SolveP: 290.93 [ms]
time step continuity errors : sum local = 1.95372e-08, global = 2.13209e-21, cumulative = 1.08654e-21
[INFO] ContinuityError: 1.765 [ms]
[INFO] CorrectBoundary: 0.07 [ms]
[INFO] PISOStep: 314.691 [ms]
[INFO] TimeStep: 752.155 [ms]
ExecutionTime = 2.7 s  ClockTime = 2 s

Time = 0.002

Courant Number mean: 0.0388951 max: 0.452981
[INFO] MatrixAssemblyU: 9.18 [ms]
DILUPBiCGStab:  Solving for Ux, Initial residual = 0.0319, Final residual = 0.000167531, No Iterations 5
DILUPBiCGStab:  Solving for Uy, Initial residual = 0.0813693, Final residual = 0.00038496, No Iterations 5
DILUPBiCGStab:  Solving for Uz, Initial residual = 0.309388, Final residual = 0.00185157, No Iterations 5
[INFO] MomentumPredictor: 107.332 [ms]
[INFO] MatrixAssemblyPI: 11.78 [ms]
[INFO] AdjustPhi: 2.015 [ms]
[INFO] ConstrainPressure: 0.002 [ms]
[INFO] MatrixAssemblyPII: 3.268 [ms]
GAMG:  Solving for p, Initial residual = 0.412939, Final residual = 9.12363e-05, No Iterations 21
[INFO] SolveP: 233.97 [ms]
time step continuity errors : sum local = 1.78792e-08, global = 7.0114e-21, cumulative = 8.09794e-21
[INFO] ContinuityError: 1.818 [ms]
[INFO] CorrectBoundary: 0.089 [ms]
[INFO] PISOStep: 257.949 [ms]
[INFO] MatrixAssemblyPI: 10.558 [ms]
[INFO] AdjustPhi: 2.77 [ms]
[INFO] ConstrainPressure: 0.003 [ms]
[INFO] MatrixAssemblyPII: 3.32 [ms]
GAMG:  Solving for p, Initial residual = 0.351005, Final residual = 9.85527e-05, No Iterations 20
[INFO] SolveP: 225.538 [ms]
time step continuity errors : sum local = 1.96749e-08, global = 2.92902e-21, cumulative = 1.1027e-20
[INFO] ContinuityError: 1.593 [ms]
[INFO] CorrectBoundary: 0.074 [ms]
[INFO] PISOStep: 249.388 [ms]
[INFO] TimeStep: 625.595 [ms]
ExecutionTime = 3.33 s  ClockTime = 3 s

Time = 0.0025

Courant Number mean: 0.0439475 max: 0.45965
[INFO] MatrixAssemblyU: 9.098 [ms]
DILUPBiCGStab:  Solving for Ux, Initial residual = 0.0235019, Final residual = 0.00010479, No Iterations 5
DILUPBiCGStab:  Solving for Uy, Initial residual = 0.0515214, Final residual = 0.000235053, No Iterations 5
DILUPBiCGStab:  Solving for Uz, Initial residual = 0.131798, Final residual = 0.00071678, No Iterations 5
[INFO] MomentumPredictor: 110.927 [ms]
[INFO] MatrixAssemblyPI: 11.942 [ms]
[INFO] AdjustPhi: 2.636 [ms]
[INFO] ConstrainPressure: 0.003 [ms]
[INFO] MatrixAssemblyPII: 3.27 [ms]
GAMG:  Solving for p, Initial residual = 0.315508, Final residual = 9.20749e-05, No Iterations 25
[INFO] SolveP: 278.5 [ms]
time step continuity errors : sum local = 1.4948e-08, global = 2.11529e-21, cumulative = 1.31423e-20
[INFO] ContinuityError: 1.808 [ms]
[INFO] CorrectBoundary: 0.078 [ms]
[INFO] PISOStep: 302.796 [ms]
[INFO] MatrixAssemblyPI: 10.614 [ms]
[INFO] AdjustPhi: 0.727 [ms]
[INFO] ConstrainPressure: 0.003 [ms]
[INFO] MatrixAssemblyPII: 3.251 [ms]
GAMG:  Solving for p, Initial residual = 0.270123, Final residual = 9.26161e-05, No Iterations 25
[INFO] SolveP: 283.163 [ms]
time step continuity errors : sum local = 1.49603e-08, global = -1.19108e-21, cumulative = 1.19512e-20
[INFO] ContinuityError: 2.159 [ms]
[INFO] CorrectBoundary: 0.07 [ms]
[INFO] PISOStep: 305.003 [ms]
[INFO] TimeStep: 729.573 [ms]
ExecutionTime = 4.05 s  ClockTime = 4 s

Time = 0.003

Courant Number mean: 0.0479874 max: 0.463888
[INFO] MatrixAssemblyU: 9.006 [ms]
DILUPBiCGStab:  Solving for Ux, Initial residual = 0.017891, Final residual = 7.93857e-05, No Iterations 5
DILUPBiCGStab:  Solving for Uy, Initial residual = 0.0401319, Final residual = 0.000115993, No Iterations 5
DILUPBiCGStab:  Solving for Uz, Initial residual = 0.107902, Final residual = 0.000564576, No Iterations 5
[INFO] MomentumPredictor: 107.056 [ms]
[INFO] MatrixAssemblyPI: 11.937 [ms]
[INFO] AdjustPhi: 1.916 [ms]
[INFO] ConstrainPressure: 0.003 [ms]
[INFO] MatrixAssemblyPII: 3.268 [ms]
GAMG:  Solving for p, Initial residual = 0.197784, Final residual = 9.41091e-05, No Iterations 25
[INFO] SolveP: 277.381 [ms]
time step continuity errors : sum local = 1.47493e-08, global = 7.02709e-22, cumulative = 1.26539e-20
[INFO] ContinuityError: 1.846 [ms]
[INFO] CorrectBoundary: 0.099 [ms]
[INFO] PISOStep: 301.39 [ms]
[INFO] MatrixAssemblyPI: 10.481 [ms]
[INFO] AdjustPhi: 1.106 [ms]
[INFO] ConstrainPressure: 0.003 [ms]
[INFO] MatrixAssemblyPII: 3.258 [ms]
GAMG:  Solving for p, Initial residual = 0.164501, Final residual = 9.65513e-05, No Iterations 23
[INFO] SolveP: 258.071 [ms]
time step continuity errors : sum local = 1.51459e-08, global = -6.87684e-21, cumulative = 5.77706e-21
[INFO] ContinuityError: 1.593 [ms]
[INFO] CorrectBoundary: 0.074 [ms]
[INFO] PISOStep: 279.745 [ms]
[INFO] TimeStep: 699.07 [ms]
ExecutionTime = 4.75 s  ClockTime = 4 s

Time = 0.0035

Courant Number mean: 0.0513963 max: 0.466764
[INFO] MatrixAssemblyU: 9.27 [ms]
DILUPBiCGStab:  Solving for Ux, Initial residual = 0.0146313, Final residual = 5.75291e-05, No Iterations 5
DILUPBiCGStab:  Solving for Uy, Initial residual = 0.031767, Final residual = 9.9396e-05, No Iterations 5
DILUPBiCGStab:  Solving for Uz, Initial residual = 0.0766523, Final residual = 0.000355968, No Iterations 5
[INFO] MomentumPredictor: 110.288 [ms]
[INFO] MatrixAssemblyPI: 12.248 [ms]
[INFO] AdjustPhi: 2.057 [ms]
[INFO] ConstrainPressure: 0.002 [ms]
[INFO] MatrixAssemblyPII: 3.281 [ms]
GAMG:  Solving for p, Initial residual = 0.140556, Final residual = 9.90062e-05, No Iterations 23
[INFO] SolveP: 256.135 [ms]
time step continuity errors : sum local = 1.47922e-08, global = 5.85162e-21, cumulative = 1.16287e-20
[INFO] ContinuityError: 1.852 [ms]
[INFO] CorrectBoundary: 0.085 [ms]
[INFO] PISOStep: 280.069 [ms]
[INFO] MatrixAssemblyPI: 10.726 [ms]
[INFO] AdjustPhi: 0.937 [ms]
[INFO] ConstrainPressure: 0.003 [ms]
[INFO] MatrixAssemblyPII: 3.408 [ms]
GAMG:  Solving for p, Initial residual = 0.117653, Final residual = 9.9517e-05, No Iterations 23
[INFO] SolveP: 255.994 [ms]
time step continuity errors : sum local = 1.48535e-08, global = 7.24971e-21, cumulative = 1.88784e-20
[INFO] ContinuityError: 1.797 [ms]
[INFO] CorrectBoundary: 0.088 [ms]
[INFO] PISOStep: 277.426 [ms]
[INFO] TimeStep: 678.776 [ms]
ExecutionTime = 5.43 s  ClockTime = 5 s

Time = 0.004

Courant Number mean: 0.054335 max: 0.468973
[INFO] MatrixAssemblyU: 8.331 [ms]
DILUPBiCGStab:  Solving for Ux, Initial residual = 0.0122817, Final residual = 4.51281e-05, No Iterations 5
DILUPBiCGStab:  Solving for Uy, Initial residual = 0.0265171, Final residual = 6.38385e-05, No Iterations 5
DILUPBiCGStab:  Solving for Uz, Initial residual = 0.0670939, Final residual = 0.000237318, No Iterations 5
[INFO] MomentumPredictor: 102.421 [ms]
[INFO] MatrixAssemblyPI: 10.736 [ms]
[INFO] AdjustPhi: 0.77 [ms]
[INFO] ConstrainPressure: 0.003 [ms]
[INFO] MatrixAssemblyPII: 3.443 [ms]
GAMG:  Solving for p, Initial residual = 0.0923207, Final residual = 9.23622e-05, No Iterations 25
[INFO] SolveP: 283.734 [ms]
time step continuity errors : sum local = 1.34777e-08, global = 5.85596e-21, cumulative = 2.47343e-20
[INFO] ContinuityError: 2.244 [ms]
[INFO] CorrectBoundary: 0.071 [ms]
[INFO] PISOStep: 306.451 [ms]
[INFO] MatrixAssemblyPI: 11.746 [ms]
[INFO] AdjustPhi: 1.103 [ms]
[INFO] ConstrainPressure: 0.003 [ms]
[INFO] MatrixAssemblyPII: 3.686 [ms]
GAMG:  Solving for p, Initial residual = 0.0765521, Final residual = 8.94774e-05, No Iterations 23
[INFO] SolveP: 257.444 [ms]
time step continuity errors : sum local = 1.30742e-08, global = -2.10996e-22, cumulative = 2.45233e-20
[INFO] ContinuityError: 1.823 [ms]
[INFO] CorrectBoundary: 0.069 [ms]
[INFO] PISOStep: 280.444 [ms]
[INFO] TimeStep: 699.397 [ms]
ExecutionTime = 6.12 s  ClockTime = 6 s

Time = 0.0045

Courant Number mean: 0.0569121 max: 0.470676
[INFO] MatrixAssemblyU: 8.229 [ms]
DILUPBiCGStab:  Solving for Ux, Initial residual = 0.0105263, Final residual = 3.57214e-05, No Iterations 5
DILUPBiCGStab:  Solving for Uy, Initial residual = 0.0226767, Final residual = 5.87026e-05, No Iterations 5
DILUPBiCGStab:  Solving for Uz, Initial residual = 0.0564019, Final residual = 0.000180976, No Iterations 5
[INFO] MomentumPredictor: 102.946 [ms]
[INFO] MatrixAssemblyPI: 10.798 [ms]
[INFO] AdjustPhi: 0.665 [ms]
[INFO] ConstrainPressure: 0.003 [ms]
[INFO] MatrixAssemblyPII: 3.45 [ms]
GAMG:  Solving for p, Initial residual = 0.0682124, Final residual = 9.11589e-05, No Iterations 23
[INFO] SolveP: 255.29 [ms]
time step continuity errors : sum local = 1.31404e-08, global = 1.13071e-20, cumulative = 3.58304e-20
[INFO] ContinuityError: 1.839 [ms]
[INFO] CorrectBoundary: 0.08 [ms]
[INFO] PISOStep: 276.529 [ms]
[INFO] MatrixAssemblyPI: 10.548 [ms]
[INFO] AdjustPhi: 0.757 [ms]
[INFO] ConstrainPressure: 0.003 [ms]
[INFO] MatrixAssemblyPII: 3.445 [ms]
GAMG:  Solving for p, Initial residual = 0.0570808, Final residual = 9.05347e-05, No Iterations 22
[INFO] SolveP: 252.12 [ms]
time step continuity errors : sum local = 1.29985e-08, global = -3.35541e-21, cumulative = 3.2475e-20
[INFO] ContinuityError: 2.048 [ms]
[INFO] CorrectBoundary: 0.144 [ms]
[INFO] PISOStep: 274.362 [ms]
[INFO] TimeStep: 663.825 [ms]
ExecutionTime = 6.78 s  ClockTime = 6 s

Time = 0.005

Courant Number mean: 0.059207 max: 0.472068
[INFO] MatrixAssemblyU: 9.216 [ms]
DILUPBiCGStab:  Solving for Ux, Initial residual = 0.00921677, Final residual = 3.00612e-05, No Iterations 5
DILUPBiCGStab:  Solving for Uy, Initial residual = 0.019729, Final residual = 4.39886e-05, No Iterations 5
DILUPBiCGStab:  Solving for Uz, Initial residual = 0.0497668, Final residual = 0.00013902, No Iterations 5
[INFO] MomentumPredictor: 104.955 [ms]
[INFO] MatrixAssemblyPI: 10.888 [ms]
[INFO] AdjustPhi: 1.003 [ms]
[INFO] ConstrainPressure: 0.003 [ms]
[INFO] MatrixAssemblyPII: 3.442 [ms]
GAMG:  Solving for p, Initial residual = 0.0463355, Final residual = 8.76825e-05, No Iterations 21
[INFO] SolveP: 235.097 [ms]
time step continuity errors : sum local = 1.24742e-08, global = 1.98329e-23, cumulative = 3.24948e-20
[INFO] ContinuityError: 1.83 [ms]
[INFO] CorrectBoundary: 0.086 [ms]
[INFO] PISOStep: 256.78 [ms]
[INFO] MatrixAssemblyPI: 10.561 [ms]
[INFO] AdjustPhi: 0.856 [ms]
[INFO] ConstrainPressure: 0.003 [ms]
[INFO] MatrixAssemblyPII: 3.277 [ms]
GAMG:  Solving for p, Initial residual = 0.0392646, Final residual = 8.73386e-05, No Iterations 21
[INFO] SolveP: 234.723 [ms]
time step continuity errors : sum local = 1.24455e-08, global = -1.55793e-21, cumulative = 3.09369e-20
[INFO] ContinuityError: 1.812 [ms]
[INFO] CorrectBoundary: 0.066 [ms]
[INFO] PISOStep: 255.68 [ms]
[INFO] TimeStep: 629.73 [ms]
ExecutionTime = 7.41 s  ClockTime = 7 s

Time = 0.0055

Courant Number mean: 0.0612665 max: 0.473215
[INFO] MatrixAssemblyU: 8.22 [ms]
DILUPBiCGStab:  Solving for Ux, Initial residual = 0.00813564, Final residual = 2.51872e-05, No Iterations 5
DILUPBiCGStab:  Solving for Uy, Initial residual = 0.0174503, Final residual = 3.93112e-05, No Iterations 5
DILUPBiCGStab:  Solving for Uz, Initial residual = 0.0443464, Final residual = 0.000117946, No Iterations 5
[INFO] MomentumPredictor: 104.778 [ms]
[INFO] MatrixAssemblyPI: 11.031 [ms]
[INFO] AdjustPhi: 2.298 [ms]
[INFO] ConstrainPressure: 0.003 [ms]
[INFO] MatrixAssemblyPII: 3.273 [ms]
GAMG:  Solving for p, Initial residual = 0.0366607, Final residual = 8.70706e-05, No Iterations 22
[INFO] SolveP: 244.731 [ms]
time step continuity errors : sum local = 1.23316e-08, global = 1.51054e-21, cumulative = 3.24475e-20
[INFO] ContinuityError: 1.872 [ms]
[INFO] CorrectBoundary: 0.091 [ms]
[INFO] PISOStep: 267.648 [ms]
[INFO] MatrixAssemblyPI: 10.565 [ms]
[INFO] AdjustPhi: 0.98 [ms]
[INFO] ConstrainPressure: 0.003 [ms]
[INFO] MatrixAssemblyPII: 3.238 [ms]
GAMG:  Solving for p, Initial residual = 0.0312963, Final residual = 8.74367e-05, No Iterations 23
[INFO] SolveP: 263.968 [ms]
time step continuity errors : sum local = 1.24099e-08, global = -3.07176e-21, cumulative = 2.93757e-20
[INFO] ContinuityError: 2.32 [ms]
[INFO] CorrectBoundary: 0.073 [ms]
[INFO] PISOStep: 286.581 [ms]
[INFO] TimeStep: 668.97 [ms]
ExecutionTime = 8.08 s  ClockTime = 8 s

Time = 0.006

Courant Number mean: 0.0631377 max: 0.47419
[INFO] MatrixAssemblyU: 8.975 [ms]
DILUPBiCGStab:  Solving for Ux, Initial residual = 0.00728627, Final residual = 2.20604e-05, No Iterations 5
DILUPBiCGStab:  Solving for Uy, Initial residual = 0.0155776, Final residual = 3.38444e-05, No Iterations 5
DILUPBiCGStab:  Solving for Uz, Initial residual = 0.0399937, Final residual = 9.99487e-05, No Iterations 5
[INFO] MomentumPredictor: 102.804 [ms]
[INFO] MatrixAssemblyPI: 11.058 [ms]
[INFO] AdjustPhi: 0.868 [ms]
[INFO] ConstrainPressure: 0.003 [ms]
[INFO] MatrixAssemblyPII: 3.451 [ms]
GAMG:  Solving for p, Initial residual = 0.0270361, Final residual = 9.09835e-05, No Iterations 23
[INFO] SolveP: 253.793 [ms]
time step continuity errors : sum local = 1.28358e-08, global = -6.44643e-21, cumulative = 2.29293e-20
[INFO] ContinuityError: 1.834 [ms]
[INFO] CorrectBoundary: 0.116 [ms]
[INFO] PISOStep: 275.45 [ms]
[INFO] MatrixAssemblyPI: 10.562 [ms]
[INFO] AdjustPhi: 0.886 [ms]
[INFO] ConstrainPressure: 0.002 [ms]
[INFO] MatrixAssemblyPII: 3.501 [ms]
GAMG:  Solving for p, Initial residual = 0.0236949, Final residual = 9.89911e-05, No Iterations 22
[INFO] SolveP: 245.931 [ms]
time step continuity errors : sum local = 1.40086e-08, global = -1.02837e-20, cumulative = 1.26456e-20
[INFO] ContinuityError: 1.789 [ms]
[INFO] CorrectBoundary: 0.089 [ms]
[INFO] PISOStep: 267.127 [ms]
[INFO] TimeStep: 656.183 [ms]
ExecutionTime = 8.73 s  ClockTime = 8 s

Time = 0.0065

Courant Number mean: 0.0648413 max: 0.475026
[INFO] MatrixAssemblyU: 8.225 [ms]
DILUPBiCGStab:  Solving for Ux, Initial residual = 0.00655597, Final residual = 1.91799e-05, No Iterations 5
DILUPBiCGStab:  Solving for Uy, Initial residual = 0.0140526, Final residual = 3.04729e-05, No Iterations 5
DILUPBiCGStab:  Solving for Uz, Initial residual = 0.0374656, Final residual = 9.1625e-05, No Iterations 5
[INFO] MomentumPredictor: 103.066 [ms]
[INFO] MatrixAssemblyPI: 10.66 [ms]
[INFO] AdjustPhi: 1.193 [ms]
[INFO] ConstrainPressure: 0.004 [ms]
[INFO] MatrixAssemblyPII: 3.427 [ms]
GAMG:  Solving for p, Initial residual = 0.0229306, Final residual = 9.09081e-05, No Iterations 23
[INFO] SolveP: 255.572 [ms]
time step continuity errors : sum local = 1.2817e-08, global = -4.17523e-21, cumulative = 8.47034e-21
[INFO] ContinuityError: 1.765 [ms]
[INFO] CorrectBoundary: 0.1 [ms]
[INFO] PISOStep: 277.15 [ms]
[INFO] MatrixAssemblyPI: 10.352 [ms]
[INFO] AdjustPhi: 0.918 [ms]
[INFO] ConstrainPressure: 0.003 [ms]
[INFO] MatrixAssemblyPII: 3.472 [ms]
GAMG:  Solving for p, Initial residual = 0.0203227, Final residual = 8.75728e-05, No Iterations 22
[INFO] SolveP: 257.4 [ms]
time step continuity errors : sum local = 1.23488e-08, global = 4.32875e-21, cumulative = 1.27991e-20
[INFO] ContinuityError: 1.66 [ms]
[INFO] CorrectBoundary: 0.285 [ms]
[INFO] PISOStep: 279.556 [ms]
[INFO] TimeStep: 669.756 [ms]
ExecutionTime = 9.4 s  ClockTime = 9 s

Time = 0.007

Courant Number mean: 0.0664086 max: 0.475756
[INFO] MatrixAssemblyU: 8.848 [ms]
DILUPBiCGStab:  Solving for Ux, Initial residual = 0.00595983, Final residual = 1.71514e-05, No Iterations 5
DILUPBiCGStab:  Solving for Uy, Initial residual = 0.0127579, Final residual = 2.74054e-05, No Iterations 5
DILUPBiCGStab:  Solving for Uz, Initial residual = 0.0342399, Final residual = 8.29302e-05, No Iterations 5
[INFO] MomentumPredictor: 104.134 [ms]
[INFO] MatrixAssemblyPI: 10.951 [ms]
[INFO] AdjustPhi: 1.023 [ms]
[INFO] ConstrainPressure: 0.003 [ms]
[INFO] MatrixAssemblyPII: 3.48 [ms]
GAMG:  Solving for p, Initial residual = 0.0185069, Final residual = 8.71339e-05, No Iterations 22
[INFO] SolveP: 244.547 [ms]
time step continuity errors : sum local = 1.23141e-08, global = 3.794e-21, cumulative = 1.65931e-20
[INFO] ContinuityError: 1.772 [ms]
[INFO] CorrectBoundary: 0.083 [ms]
[INFO] PISOStep: 266.285 [ms]
[INFO] MatrixAssemblyPI: 10.427 [ms]
[INFO] AdjustPhi: 0.937 [ms]
[INFO] ConstrainPressure: 0.003 [ms]
[INFO] MatrixAssemblyPII: 3.291 [ms]
GAMG:  Solving for p, Initial residual = 0.0167856, Final residual = 9.33973e-05, No Iterations 22
[INFO] SolveP: 245.975 [ms]
time step continuity errors : sum local = 1.31505e-08, global = -1.35398e-21, cumulative = 1.52391e-20
[INFO] ContinuityError: 1.81 [ms]
[INFO] CorrectBoundary: 0.086 [ms]
[INFO] PISOStep: 266.902 [ms]
[INFO] TimeStep: 648.296 [ms]
ExecutionTime = 10.04 s  ClockTime = 10 s

Time = 0.0075

Courant Number mean: 0.0678551 max: 0.476395
[INFO] MatrixAssemblyU: 8.364 [ms]
DILUPBiCGStab:  Solving for Ux, Initial residual = 0.00543479, Final residual = 1.52712e-05, No Iterations 5
DILUPBiCGStab:  Solving for Uy, Initial residual = 0.0116636, Final residual = 2.49231e-05, No Iterations 5
DILUPBiCGStab:  Solving for Uz, Initial residual = 0.0317477, Final residual = 7.60817e-05, No Iterations 5
[INFO] MomentumPredictor: 102.599 [ms]
[INFO] MatrixAssemblyPI: 10.625 [ms]
[INFO] AdjustPhi: 0.961 [ms]
[INFO] ConstrainPressure: 0.003 [ms]
[INFO] MatrixAssemblyPII: 3.475 [ms]
GAMG:  Solving for p, Initial residual = 0.0164309, Final residual = 9.2976e-05, No Iterations 21
[INFO] SolveP: 233.235 [ms]
time step continuity errors : sum local = 1.31257e-08, global = 2.64534e-21, cumulative = 1.78845e-20
[INFO] ContinuityError: 1.78 [ms]
[INFO] CorrectBoundary: 0.086 [ms]
[INFO] PISOStep: 254.611 [ms]
[INFO] MatrixAssemblyPI: 10.493 [ms]
[INFO] AdjustPhi: 0.935 [ms]
[INFO] ConstrainPressure: 0.003 [ms]
[INFO] MatrixAssemblyPII: 3.306 [ms]
GAMG:  Solving for p, Initial residual = 0.0150151, Final residual = 9.79658e-05, No Iterations 18
[INFO] SolveP: 201.462 [ms]
time step continuity errors : sum local = 1.37525e-08, global = -1.45736e-21, cumulative = 1.64271e-20
[INFO] ContinuityError: 1.804 [ms]
[INFO] CorrectBoundary: 0.075 [ms]
[INFO] PISOStep: 222.434 [ms]
[INFO] TimeStep: 589.784 [ms]
ExecutionTime = 10.63 s  ClockTime = 10 s

Time = 0.008

Courant Number mean: 0.0691919 max: 0.476963
[INFO] MatrixAssemblyU: 8.24 [ms]
DILUPBiCGStab:  Solving for Ux, Initial residual = 0.00499267, Final residual = 1.38205e-05, No Iterations 5
DILUPBiCGStab:  Solving for Uy, Initial residual = 0.0107144, Final residual = 2.28295e-05, No Iterations 5
DILUPBiCGStab:  Solving for Uz, Initial residual = 0.029872, Final residual = 7.09116e-05, No Iterations 5
[INFO] MomentumPredictor: 103.152 [ms]
[INFO] MatrixAssemblyPI: 10.714 [ms]
[INFO] AdjustPhi: 0.703 [ms]
[INFO] ConstrainPressure: 0.003 [ms]
[INFO] MatrixAssemblyPII: 3.509 [ms]
GAMG:  Solving for p, Initial residual = 0.0146875, Final residual = 8.34432e-05, No Iterations 20
[INFO] SolveP: 231.12 [ms]
time step continuity errors : sum local = 1.17816e-08, global = -4.09609e-21, cumulative = 1.2331e-20
[INFO] ContinuityError: 1.912 [ms]
[INFO] CorrectBoundary: 0.069 [ms]
[INFO] PISOStep: 253.519 [ms]
[INFO] MatrixAssemblyPI: 11.56 [ms]
[INFO] AdjustPhi: 1.094 [ms]
[INFO] ConstrainPressure: 0.003 [ms]
[INFO] MatrixAssemblyPII: 3.742 [ms]
GAMG:  Solving for p, Initial residual = 0.0136276, Final residual = 9.86414e-05, No Iterations 22
[INFO] SolveP: 246.085 [ms]
time step continuity errors : sum local = 1.3924e-08, global = -7.42656e-21, cumulative = 4.90444e-21
[INFO] ContinuityError: 1.812 [ms]
[INFO] CorrectBoundary: 0.083 [ms]
[INFO] PISOStep: 268.809 [ms]
[INFO] TimeStep: 635.495 [ms]
ExecutionTime = 11.26 s  ClockTime = 11 s

Time = 0.0085

Courant Number mean: 0.070437 max: 0.477472
[INFO] MatrixAssemblyU: 8.339 [ms]
DILUPBiCGStab:  Solving for Ux, Initial residual = 0.00459749, Final residual = 1.25015e-05, No Iterations 5
DILUPBiCGStab:  Solving for Uy, Initial residual = 0.00989071, Final residual = 2.09813e-05, No Iterations 5
DILUPBiCGStab:  Solving for Uz, Initial residual = 0.0279377, Final residual = 6.75841e-05, No Iterations 5
[INFO] MomentumPredictor: 103.016 [ms]
[INFO] MatrixAssemblyPI: 10.612 [ms]
[INFO] AdjustPhi: 0.881 [ms]
[INFO] ConstrainPressure: 0.003 [ms]
[INFO] MatrixAssemblyPII: 3.498 [ms]
GAMG:  Solving for p, Initial residual = 0.0133513, Final residual = 8.5651e-05, No Iterations 22
[INFO] SolveP: 243.975 [ms]
time step continuity errors : sum local = 1.20938e-08, global = 1.34459e-21, cumulative = 6.24903e-21
[INFO] ContinuityError: 1.817 [ms]
[INFO] CorrectBoundary: 0.09 [ms]
[INFO] PISOStep: 265.331 [ms]
[INFO] MatrixAssemblyPI: 10.514 [ms]
[INFO] AdjustPhi: 0.901 [ms]
[INFO] ConstrainPressure: 0.003 [ms]
[INFO] MatrixAssemblyPII: 3.36 [ms]
GAMG:  Solving for p, Initial residual = 0.0124382, Final residual = 9.8556e-05, No Iterations 20
[INFO] SolveP: 225.018 [ms]
time step continuity errors : sum local = 1.38647e-08, global = 9.64447e-22, cumulative = 7.21348e-21
[INFO] ContinuityError: 1.853 [ms]
[INFO] CorrectBoundary: 0.093 [ms]
[INFO] PISOStep: 246.034 [ms]
[INFO] TimeStep: 624.5 [ms]
ExecutionTime = 11.88 s  ClockTime = 12 s

Time = 0.009

Courant Number mean: 0.0715998 max: 0.477928
[INFO] MatrixAssemblyU: 8.457 [ms]
DILUPBiCGStab:  Solving for Ux, Initial residual = 0.00425731, Final residual = 1.14092e-05, No Iterations 5
DILUPBiCGStab:  Solving for Uy, Initial residual = 0.00916386, Final residual = 1.93984e-05, No Iterations 5
DILUPBiCGStab:  Solving for Uz, Initial residual = 0.026114, Final residual = 6.25986e-05, No Iterations 5
[INFO] MomentumPredictor: 106.714 [ms]
[INFO] MatrixAssemblyPI: 10.738 [ms]
[INFO] AdjustPhi: 0.733 [ms]
[INFO] ConstrainPressure: 0.003 [ms]
[INFO] MatrixAssemblyPII: 3.476 [ms]
GAMG:  Solving for p, Initial residual = 0.0124322, Final residual = 9.50585e-05, No Iterations 18
[INFO] SolveP: 202.704 [ms]
time step continuity errors : sum local = 1.33434e-08, global = -6.17459e-21, cumulative = 1.03888e-21
[INFO] ContinuityError: 1.776 [ms]
[INFO] CorrectBoundary: 0.084 [ms]
[INFO] PISOStep: 223.997 [ms]
[INFO] MatrixAssemblyPI: 10.497 [ms]
[INFO] AdjustPhi: 0.934 [ms]
[INFO] ConstrainPressure: 0.004 [ms]
[INFO] MatrixAssemblyPII: 3.274 [ms]
GAMG:  Solving for p, Initial residual = 0.0116328, Final residual = 8.27493e-05, No Iterations 22
[INFO] SolveP: 247.827 [ms]
time step continuity errors : sum local = 1.16927e-08, global = -1.19871e-21, cumulative = -1.59824e-22
[INFO] ContinuityError: 1.611 [ms]
[INFO] CorrectBoundary: 0.068 [ms]
[INFO] PISOStep: 269.287 [ms]
[INFO] TimeStep: 610.229 [ms]
ExecutionTime = 12.49 s  ClockTime = 12 s

Time = 0.0095

Courant Number mean: 0.0726864 max: 0.478342
[INFO] MatrixAssemblyU: 9.3 [ms]
DILUPBiCGStab:  Solving for Ux, Initial residual = 0.00394954, Final residual = 1.0436e-05, No Iterations 5
DILUPBiCGStab:  Solving for Uy, Initial residual = 0.00852102, Final residual = 1.79761e-05, No Iterations 5
DILUPBiCGStab:  Solving for Uz, Initial residual = 0.0244747, Final residual = 5.93867e-05, No Iterations 5
[INFO] MomentumPredictor: 110.641 [ms]
[INFO] MatrixAssemblyPI: 11.264 [ms]
[INFO] AdjustPhi: 2.841 [ms]
[INFO] ConstrainPressure: 0.004 [ms]
[INFO] MatrixAssemblyPII: 3.32 [ms]
GAMG:  Solving for p, Initial residual = 0.0114711, Final residual = 9.01971e-05, No Iterations 22
[INFO] SolveP: 245.59 [ms]
time step continuity errors : sum local = 1.27334e-08, global = -6.40198e-21, cumulative = -6.5618e-21
[INFO] ContinuityError: 1.829 [ms]
[INFO] CorrectBoundary: 0.108 [ms]
[INFO] PISOStep: 269.41 [ms]
[INFO] MatrixAssemblyPI: 10.371 [ms]
[INFO] AdjustPhi: 0.985 [ms]
[INFO] ConstrainPressure: 0.003 [ms]
[INFO] MatrixAssemblyPII: 3.469 [ms]
GAMG:  Solving for p, Initial residual = 0.0107771, Final residual = 9.65486e-05, No Iterations 20
[INFO] SolveP: 224.001 [ms]
time step continuity errors : sum local = 1.35893e-08, global = -4.52366e-21, cumulative = -1.10855e-20
[INFO] ContinuityError: 1.821 [ms]
[INFO] CorrectBoundary: 0.087 [ms]
[INFO] PISOStep: 245.034 [ms]
[INFO] TimeStep: 636.191 [ms]
ExecutionTime = 13.12 s  ClockTime = 13 s

Time = 0.01

Courant Number mean: 0.0737034 max: 0.478716
[INFO] MatrixAssemblyU: 8.432 [ms]
DILUPBiCGStab:  Solving for Ux, Initial residual = 0.00368012, Final residual = 9.5855e-06, No Iterations 5
DILUPBiCGStab:  Solving for Uy, Initial residual = 0.00794671, Final residual = 1.67254e-05, No Iterations 5
DILUPBiCGStab:  Solving for Uz, Initial residual = 0.0232493, Final residual = 5.59868e-05, No Iterations 5
[INFO] MomentumPredictor: 103.638 [ms]
[INFO] MatrixAssemblyPI: 10.736 [ms]
[INFO] AdjustPhi: 0.638 [ms]
[INFO] ConstrainPressure: 0.003 [ms]
[INFO] MatrixAssemblyPII: 3.49 [ms]
GAMG:  Solving for p, Initial residual = 0.0111318, Final residual = 8.95084e-05, No Iterations 19
[INFO] SolveP: 211.722 [ms]
time step continuity errors : sum local = 1.2673e-08, global = -7.47807e-21, cumulative = -1.85635e-20
[INFO] ContinuityError: 1.805 [ms]
[INFO] CorrectBoundary: 0.092 [ms]
[INFO] PISOStep: 232.922 [ms]
[INFO] MatrixAssemblyPI: 10.578 [ms]
[INFO] AdjustPhi: 0.882 [ms]
[INFO] ConstrainPressure: 0.003 [ms]
[INFO] MatrixAssemblyPII: 3.281 [ms]
GAMG:  Solving for p, Initial residual = 0.0104744, Final residual = 8.66622e-05, No Iterations 23
[INFO] SolveP: 256.899 [ms]
time step continuity errors : sum local = 1.22227e-08, global = -3.94822e-21, cumulative = -2.25117e-20
[INFO] ContinuityError: 1.806 [ms]
[INFO] CorrectBoundary: 0.082 [ms]
[INFO] PISOStep: 277.922 [ms]
[INFO] TimeStep: 624.683 [ms]
ExecutionTime = 13.75 s  ClockTime = 13 s

End

Finalising parallel run
