/*---------------------------------------------------------------------------*\
| =========                 |                                                 |
| \\      /  F ield         | OpenFOAM: The Open Source CFD Toolbox           |
|  \\    /   O peration     | Version:  2306                                  |
|   \\  /    A nd           | Website:  www.openfoam.com                      |
|    \\/     M anipulation  |                                                 |
\*---------------------------------------------------------------------------*/
Build  : c423ebec-20231012 OPENFOAM=2306 version=v2306
Arch   : "LSB;label=32;scalar=64"
Exec   : simpleFoam -parallel -case /hkfs/work/workspace/scratch/eq4036-windsorbody_setup/workspace/f46a6fc547c838186ad5f2f08289eadf/case
Date   : Feb 16 2024
Time   : 14:53:01
Host   : hkn0603.localdomain
PID    : 318832
I/O    : uncollated
Case   : /hkfs/work/workspace/scratch/eq4036-windsorbody_setup/workspace/f46a6fc547c838186ad5f2f08289eadf/case
nProcs : 12
Hosts  :
(
    (hkn0603.localdomain 6)
    (hkn0604.localdomain 6)
)
Pstream initialized with:
    floatTransfer      : false
    nProcsSimpleSum    : 0
    nonBlockingExchange: 0 (tuning: 0)
    exchange algorithm : -1
    commsType          : nonBlocking
    polling iterations : 0
trapFpe: Floating point exception trapping enabled (FOAM_SIGFPE).
fileModificationChecking : Monitoring run-time modified files using timeStampMaster (fileModificationSkew 5, maxFileModificationPolls 20)
allowSystemOperations : Allowing user-supplied system call operations

// * * * * * * * * * * * * * * * * * * * * * * * * * * * * * * * * * * * * * //
Create time

--> FOAM Warning : 
    From void* Foam::dlLibraryTable::openLibrary(const Foam::fileName&, bool)
    in file db/dynamicLibrary/dlLibraryTable/dlLibraryTable.C at line 188
    Could not load "libpetscFoam.so"
libpetscFoam.so: cannot open shared object file: No such file or directory
Create mesh for time = 0


SIMPLE: convergence criteria
    field p	 tolerance 1e-08
    field U	 tolerance 1e-08
    field k	 tolerance 1e-08
    field omega	 tolerance 1e-08
    field nuTilda	 tolerance 1e-08

Reading field p

Reading field U

Reading/calculating face flux field phi

Selecting incompressible transport model Newtonian
Selecting turbulence model type RAS
Selecting RAS turbulence model SpalartAllmaras
Selecting patchDistMethod meshWave
ft2 term: inactive
RAS
{
    RASModel        SpalartAllmaras;
    turbulence      on;
    printCoeffs     on;
    sigmaNut        0.66666;
    kappa           0.41;
    Cb1             0.1355;
    Cb2             0.622;
    Cw2             0.3;
    Cw3             2;
    Cv1             7.1;
    Cs              0.3;
    ck              0.07000000000000001;
    ft2             false;
    Ct3             1.2;
    Ct4             0.5;
}

No MRF models present

Creating finite volume options from "system/fvOptions"

Selecting finite volume options type velocityDampingConstraint
    Source: velocityDamping
    - selecting all cells
    - selected 25228544 cell(s) with volume 111.3033220641657

Starting time loop

--> FOAM Warning : 
    From bool Foam::functionObjectList::read()
    in file db/functionObjects/functionObjectList/functionObjectList.C at line 1035
    Reading "system/controlDict" at line 2 to 41
    Entry 'lref' is not a dictionary
--> FOAM Warning : 
    From bool Foam::functionObjectList::read()
    in file db/functionObjects/functionObjectList/functionObjectList.C at line 1035
    Reading "system/controlDict" at line 2 to 41
    Entry 'Aref' is not a dictionary
--> FOAM Warning : 
    From bool Foam::functionObjectList::read()
    in file db/functionObjects/functionObjectList/functionObjectList.C at line 1035
    Reading "system/controlDict" at line 2 to 41
    Entry 'yawAngle' is not a dictionary
--> FOAM Warning : 
    From bool Foam::functionObjectList::read()
    in file db/functionObjects/functionObjectList/functionObjectList.C at line 1035
    Reading "system/controlDict" at line 2 to 41
    Entry 'lDomain' is not a dictionary
--> FOAM Warning : 
    From bool Foam::functionObjectList::read()
    in file db/functionObjects/functionObjectList/functionObjectList.C at line 1035
    Reading "system/controlDict" at line 2 to 41
    Entry 'bDomain' is not a dictionary
--> FOAM Warning : 
    From bool Foam::functionObjectList::read()
    in file db/functionObjects/functionObjectList/functionObjectList.C at line 1035
    Reading "system/controlDict" at line 2 to 41
    Entry 'hDomain' is not a dictionary
--> FOAM Warning : 
    From bool Foam::functionObjectList::read()
    in file db/functionObjects/functionObjectList/functionObjectList.C at line 1035
    Reading "system/controlDict" at line 2 to 41
    Entry 'xCenter' is not a dictionary
--> FOAM Warning : 
    From bool Foam::functionObjectList::read()
    in file db/functionObjects/functionObjectList/functionObjectList.C at line 1035
    Reading "system/controlDict" at line 2 to 41
    Entry 'yCenter' is not a dictionary
--> FOAM Warning : 
    From bool Foam::functionObjectList::read()
    in file db/functionObjects/functionObjectList/functionObjectList.C at line 1035
    Reading "system/controlDict" at line 2 to 41
    Entry 'zCenter' is not a dictionary
--> FOAM Warning : 
    From bool Foam::functionObjectList::read()
    in file db/functionObjects/functionObjectList/functionObjectList.C at line 1035
    Reading "system/controlDict" at line 2 to 41
    Entry 'inletPatch' is not a dictionary
--> FOAM Warning : 
    From bool Foam::functionObjectList::read()
    in file db/functionObjects/functionObjectList/functionObjectList.C at line 1035
    Reading "system/controlDict" at line 2 to 41
    Entry 'outletPatch' is not a dictionary
--> FOAM Warning : 
    From bool Foam::functionObjectList::read()
    in file db/functionObjects/functionObjectList/functionObjectList.C at line 1035
    Reading "system/controlDict" at line 2 to 41
    Entry 'wallPatches' is not a dictionary
--> FOAM Warning : 
    From bool Foam::functionObjectList::read()
    in file db/functionObjects/functionObjectList/functionObjectList.C at line 1035
    Reading "system/controlDict" at line 2 to 41
    Entry 'forcesWallPatches' is not a dictionary
--> FOAM Warning : 
    From bool Foam::functionObjectList::read()
    in file db/functionObjects/functionObjectList/functionObjectList.C at line 1035
    Reading "system/controlDict" at line 2 to 41
    Entry 'symmPatches' is not a dictionary
--> FOAM Warning : 
    From bool Foam::functionObjectList::read()
    in file db/functionObjects/functionObjectList/functionObjectList.C at line 1035
    Reading "system/controlDict" at line 2 to 41
    Entry 'Uinf' is not a dictionary
--> FOAM Warning : 
    From bool Foam::functionObjectList::read()
    in file db/functionObjects/functionObjectList/functionObjectList.C at line 1035
    Reading "system/controlDict" at line 2 to 41
    Entry 'UinfMag' is not a dictionary
--> FOAM Warning : 
    From bool Foam::functionObjectList::read()
    in file db/functionObjects/functionObjectList/functionObjectList.C at line 1035
    Reading "system/controlDict" at line 2 to 41
    Entry 'nu' is not a dictionary
--> FOAM Warning : 
    From bool Foam::functionObjectList::read()
    in file db/functionObjects/functionObjectList/functionObjectList.C at line 1035
    Reading "system/controlDict" at line 2 to 41
    Entry 'pref' is not a dictionary
--> FOAM Warning : 
    From bool Foam::functionObjectList::read()
    in file db/functionObjects/functionObjectList/functionObjectList.C at line 1035
    Reading "system/controlDict" at line 2 to 41
    Entry 'viscRatio' is not a dictionary
--> FOAM Warning : 
    From bool Foam::functionObjectList::read()
    in file db/functionObjects/functionObjectList/functionObjectList.C at line 1035
    Reading "system/controlDict" at line 2 to 41
    Entry 'Tu' is not a dictionary
--> FOAM Warning : 
    From bool Foam::functionObjectList::read()
    in file db/functionObjects/functionObjectList/functionObjectList.C at line 1035
    Reading "system/controlDict" at line 2 to 41
    Entry 'LESturbModel' is not a dictionary
--> FOAM Warning : 
    From bool Foam::functionObjectList::read()
    in file db/functionObjects/functionObjectList/functionObjectList.C at line 1035
    Reading "system/controlDict" at line 2 to 41
    Entry 'RASturbModel' is not a dictionary
--> FOAM Warning : 
    From bool Foam::functionObjectList::read()
    in file db/functionObjects/functionObjectList/functionObjectList.C at line 1035
    Reading "system/controlDict" at line 2 to 41
    Entry 'deltaTurb' is not a dictionary
--> FOAM Warning : 
    From bool Foam::functionObjectList::read()
    in file db/functionObjects/functionObjectList/functionObjectList.C at line 1035
    Reading "system/controlDict" at line 2 to 41
    Entry 'dt' is not a dictionary
--> FOAM Warning : 
    From bool Foam::functionObjectList::read()
    in file db/functionObjects/functionObjectList/functionObjectList.C at line 1035
    Reading "system/controlDict" at line 2 to 41
    Entry 'tAvg' is not a dictionary
--> FOAM Warning : 
    From bool Foam::functionObjectList::read()
    in file db/functionObjects/functionObjectList/functionObjectList.C at line 1035
    Reading "system/controlDict" at line 2 to 41
    Entry 'tEnd' is not a dictionary
--> FOAM Warning : 
    From bool Foam::functionObjectList::read()
    in file db/functionObjects/functionObjectList/functionObjectList.C at line 1035
    Reading "system/controlDict" at line 2 to 41
    Entry 'writeInterval_' is not a dictionary
--> FOAM Warning : 
    From bool Foam::functionObjectList::read()
    in file db/functionObjects/functionObjectList/functionObjectList.C at line 1035
    Reading "system/controlDict" at line 2 to 41
    Entry 'nCores' is not a dictionary
--> FOAM Warning : 
    From bool Foam::functionObjectList::read()
    in file db/functionObjects/functionObjectList/functionObjectList.C at line 1035
    Reading "system/controlDict" at line 2 to 41
    Entry 'interpScheme' is not a dictionary
--> FOAM Warning : 
    From bool Foam::functionObjectList::read()
    in file db/functionObjects/functionObjectList/functionObjectList.C at line 1035
    Reading "system/controlDict" at line 2 to 41
    Entry 'probeField' is not a dictionary
wallShearStress wallShearStress:
    processing wall patches: 
        Windsor_Body
        CFDWT_Floor
        Windsor_Pins
        Windsor_Base
        Windsor_Body_2
        CFDWT_Floor_2
        Windsor_Pins_2
        Windsor_Base_2
        Windsor_Body_3
        CFDWT_Floor_3
        Windsor_Pins_3
        Windsor_Base_3
        Windsor_Body_4
        CFDWT_Floor_4
        Windsor_Pins_4
        Windsor_Base_4

pressure calc_cp:
    Operating mode: staticCoeff
    Not including hydrostatic effects

forceCoeffs forceCoeffsAll:
    rho: rhoInf
    Freestream density (rhoInf) set to 1
    Not including porosity effects
    magUInf: 40
    lRef   : 0.6375
    Aref   : 0.1124
    rhoInf : 1
    Selecting all coefficients
    - Drag force: Cd
    - Drag force front: Cd(f)
    - Drag force rear: Cd(r)
    - Lift force: Cl
    - Lift force front: Cl(f)
    - Lift force rear: Cl(r)
    - Pitch moment: CmPitch
    - Roll moment: CmRoll
    - Yaw moment: CmYaw
    - Side force: Cs
    - Side force front: Cs(f)
    - Side force rear: Cs(r)


forceCoeffs dragCoeffBase:
    rho: rhoInf
    Freestream density (rhoInf) set to 1
    Not including porosity effects
    magUInf: 40
    lRef   : 0.6375
    Aref   : 0.1124
    rhoInf : 1
    Selecting coefficients:
    - Drag force: Cd


Time = 1

velocityDampingConstraint velocityDamping damped 0 (0%) of cells, with max limit 300
smoothSolver:  Solving for Ux, Initial residual = 0.999999999999471, Final residual = 0.08582411842362607, No Iterations 3
smoothSolver:  Solving for Uy, Initial residual = 1, Final residual = 0.06574210327433022, No Iterations 6
smoothSolver:  Solving for Uz, Initial residual = 1, Final residual = 0.01751034401662928, No Iterations 2
[OGL LOG][lduLduBase.H:119] Initialising OGL
	OGL commit:  e75313f+
	Branch: dev 
	Build type: Debug
	Ginkgo version: 1.8.0 ( develop)
	Ginkgo commit: sparse-communicator
	MPI is GPU aware: 1
	Forces host buffer based communication: 0
	CPU ranks per GPU: 1
	Matrix format: Coo
	End OGL_INFO
[OGL LOG][Proc: 0]: global_index_init: 8.259 [ms]
[OGL LOG][Proc: 0]p_local_cols: call_init: 1.236 [ms]
[OGL LOG][Proc: 0]p_local_rows: call_init: 0.521 [ms]
[OGL LOG][Proc: 0]p_local_ldu_map: call_init: 0.422 [ms]
[OGL LOG][Proc: 0]p_local_coeffs: call_init: 4.235 [ms]
[OGL LOG][Proc: 0]p_non_local_cols: call_init: 0.311 [ms]
[OGL LOG][Proc: 0]p_non_local_rows: call_init: 0.118 [ms]
[OGL LOG][Proc: 0]p_non_local_ldu_map: call_init: 0.228 [ms]
[OGL LOG][Proc: 0]p_non_local_coeffs: call_init: 0.237 [ms]
[OGL LOG][Proc: 0]p: init_local_sparsity_pattern: 82150.15300000001 [ms]
[OGL LOG][Proc: 0]p: init_non_local_sparsity_pattern: 64.80800000000001 [ms]
[OGL LOG][Proc: 0]p: update_local_matrix_data: 103.245 [ms]
[OGL LOG][Proc: 0]p: update_non_local_matrix_data: 0.631 [ms]
[OGL LOG][Proc: 0]device_partition: call_init: 0.212 [ms]
[OGL LOG][Proc: 0]p_matrix: call_init: 189.892 [ms]
[OGL LOG][Proc: 0]p_rhs: call_init: 2.718 [ms]
[OGL LOG][Proc: 0]p_solution: call_init: 4.182 [ms]
[OGL LOG][Preconditioner.H:271] Generate preconditioner GISAI SparsityPower 1
[OGL LOG][Proc: 0]p: init_precond: 318.976 [ms]
[OGL LOG][StoppingCriterion.H:239] Creating stopping criterion with minIter 0 frequency 1
[OGL LOG][Proc: 0]p: generate_solver: 0.139 [ms]
[OGL LOG][Proc: 0]p: solve: 5083.761 [ms]
[OGL LOG][Proc: 0]p: copy_x_back: 6.326 [ms]
[OGL LOG][lduLduBase.H:330] 
Statistics:
	Time per iteration: 5078 [mu s]
	Time per residual norm calculation: 3157.000000 [mu s]
	Time per iteration and DOF: 0.201280 [ns]
	Retrieve results bandwidth 2.666000 [GByte/s]
[OGL LOG][Proc: 0]p: solve_multi_gpu: 6255.406 [ms]
GISAIcudaGKOCG:  Solving for p, Initial residual = 1.000000000000791, Final residual = 1.000000001513232, No Iterations 1001
time step continuity errors : sum local = 0.3634091269973064, global = -0.0009481877789801164, cumulative = -0.0009481877789801164
smoothSolver:  Solving for nuTilda, Initial residual = 0.9999999996981627, Final residual = 0.05121235642436461, No Iterations 3
ExecutionTime = 118.76 s  ClockTime = 119 s

--> FOAM Warning : 
    From virtual bool Foam::functionObjects::fieldSelection::checkSelection()
    in file functionObjects/fieldSelections/fieldSelection/fieldSelection.C at line 166
    Field k not found
--> FOAM Warning : 
    From virtual bool Foam::functionObjects::fieldSelection::checkSelection()
    in file functionObjects/fieldSelections/fieldSelection/fieldSelection.C at line 166
    Field gammaInt not found
--> FOAM Warning : 
    From virtual bool Foam::functionObjects::fieldSelection::checkSelection()
    in file functionObjects/fieldSelections/fieldSelection/fieldSelection.C at line 166
    Field omega not found
--> FOAM Warning : 
    From virtual bool Foam::functionObjects::fieldSelection::checkSelection()
    in file functionObjects/fieldSelections/fieldSelection/fieldSelection.C at line 166
    Field ReThetat not found
--> FOAM Warning : 
    From virtual bool Foam::functionObjects::fieldSelection::checkSelection()
    in file functionObjects/fieldSelections/fieldSelection/fieldSelection.C at line 166
    Field epsilon not found
--> FOAM Warning : 
    From virtual bool Foam::functionObjects::solverFieldSelection::updateSelection()
    in file functionObjects/fieldSelections/solverFieldSelection/solverFieldSelection.C at line 85
    Valid solver fields are: 3(U nuTilda p)Time = 2

velocityDampingConstraint velocityDamping damped 0 (0%) of cells, with max limit 300
smoothSolver:  Solving for Ux, Initial residual = 0.06062422070324049, Final residual = 0.004973636741740901, No Iterations 5
smoothSolver:  Solving for Uy, Initial residual = 0.08038566171349888, Final residual = 0.007799999351769624, No Iterations 2
smoothSolver:  Solving for Uz, Initial residual = 0.1042487587438853, Final residual = 0.007935374440529518, No Iterations 2
[OGL LOG][Proc: 0]: global_index_init: 0.02 [ms]
[OGL LOG][Proc: 0]p_local_coeffs: call_update: 0.001 [ms]
[OGL LOG][Proc: 0]p_non_local_coeffs: call_update: 0 [ms]
[OGL LOG][Proc: 0]p: update_local_matrix_data: 83.342 [ms]
[OGL LOG][Proc: 0]p: update_non_local_matrix_data: 0.632 [ms]
[OGL LOG][Proc: 0]p_matrix: call_update: 3.052 [ms]
[OGL LOG][Proc: 0]p_rhs: call_update: 2.514 [ms]
[OGL LOG][Preconditioner.H:271] Generate preconditioner GISAI SparsityPower 1
[OGL LOG][Proc: 0]p: init_precond: 298.873 [ms]
[OGL LOG][StoppingCriterion.H:239] Creating stopping criterion with minIter 600 frequency 20
[OGL LOG][Proc: 0]p: generate_solver: 0.022 [ms]
[OGL LOG][Proc: 0]p: solve: 4026.717 [ms]
[OGL LOG][Proc: 0]p: copy_x_back: 6.289 [ms]
[OGL LOG][lduLduBase.H:330] 
Statistics:
	Time per iteration: 4022 [mu s]
	Time per residual norm calculation: 1429.000000 [mu s]
	Time per iteration and DOF: 0.159423 [ns]
	Retrieve results bandwidth 2.681000 [GByte/s]
[OGL LOG][Proc: 0]p: solve_multi_gpu: 4344.211 [ms]
GISAIcudaGKOCG:  Solving for p, Initial residual = 0.9999999989545741, Final residual = 0.999999999881566, No Iterations 1001
time step continuity errors : sum local = 2.038929566531133, global = -0.001756535660086948, cumulative = -0.002704723439067065
smoothSolver:  Solving for nuTilda, Initial residual = 0.2808793528185593, Final residual = 0.0222177779339335, No Iterations 2
ExecutionTime = 131.94 s  ClockTime = 132 s

Time = 3

velocityDampingConstraint velocityDamping damped 8380 (0.03%) of cells, with max limit 300
smoothSolver:  Solving for Ux, Initial residual = 0.1273463826366681, Final residual = 0.007157837371322001, No Iterations 10
smoothSolver:  Solving for Uy, Initial residual = 0.1071713478728391, Final residual = 0.008180130028969643, No Iterations 11
smoothSolver:  Solving for Uz, Initial residual = 0.1278756298688614, Final residual = 0.01178036836366371, No Iterations 10
[OGL LOG][Proc: 0]: global_index_init: 0.242 [ms]
[OGL LOG][Proc: 0]p_local_coeffs: call_update: 0 [ms]
[OGL LOG][Proc: 0]p_non_local_coeffs: call_update: 0 [ms]
[OGL LOG][Proc: 0]p: update_local_matrix_data: 85.488 [ms]
[OGL LOG][Proc: 0]p: update_non_local_matrix_data: 0.569 [ms]
[OGL LOG][Proc: 0]p_matrix: call_update: 3.194 [ms]
[OGL LOG][Proc: 0]p_rhs: call_update: 2.331 [ms]
[OGL LOG][Preconditioner.H:271] Generate preconditioner GISAI SparsityPower 1
[OGL LOG][Proc: 0]p: init_precond: 309.675 [ms]
[OGL LOG][StoppingCriterion.H:239] Creating stopping criterion with minIter 600 frequency 14
[OGL LOG][Proc: 0]p: generate_solver: 0.016 [ms]
[OGL LOG][Proc: 0]p: solve: 3796.766 [ms]
[OGL LOG][Proc: 0]p: copy_x_back: 6.276 [ms]
[OGL LOG][lduLduBase.H:330] 
Statistics:
	Time per iteration: 3762 [mu s]
	Time per residual norm calculation: 1287.000000 [mu s]
	Time per iteration and DOF: 0.149117 [ns]
	Retrieve results bandwidth 2.687000 [GByte/s]
[OGL LOG][Proc: 0]p: solve_multi_gpu: 4122.174 [ms]
GISAIcudaGKOCG:  Solving for p, Initial residual = 0.9999999992305992, Final residual = 0.9999999994251516, No Iterations 1009
time step continuity errors : sum local = 6.877968840569682, global = -0.002395411860891595, cumulative = -0.005100135299958659
smoothSolver:  Solving for nuTilda, Initial residual = 0.3492070124935016, Final residual = 0.02695180458184102, No Iterations 1
ExecutionTime = 146.11 s  ClockTime = 147 s

Time = 4

velocityDampingConstraint velocityDamping damped 114796 (0.46%) of cells, with max limit 300
smoothSolver:  Solving for Ux, Initial residual = 0.3941281087315348, Final residual = 0.01855110486346953, No Iterations 1
smoothSolver:  Solving for Uy, Initial residual = 0.3869304008864901, Final residual = 0.02803169174527542, No Iterations 1
smoothSolver:  Solving for Uz, Initial residual = 0.4070690958087987, Final residual = 0.02044291973853033, No Iterations 2
[OGL LOG][Proc: 0]: global_index_init: 0.039 [ms]
[OGL LOG][Proc: 0]p_local_coeffs: call_update: 0 [ms]
[OGL LOG][Proc: 0]p_non_local_coeffs: call_update: 0 [ms]
[OGL LOG][Proc: 0]p: update_local_matrix_data: 88.94799999999999 [ms]
[OGL LOG][Proc: 0]p: update_non_local_matrix_data: 0.54 [ms]
[OGL LOG][Proc: 0]p_matrix: call_update: 2.145 [ms]
[OGL LOG][Proc: 0]p_rhs: call_update: 3.268 [ms]
[OGL LOG][Preconditioner.H:271] Generate preconditioner GISAI SparsityPower 1
[OGL LOG][Proc: 0]p: init_precond: 282.231 [ms]
[OGL LOG][StoppingCriterion.H:239] Creating stopping criterion with minIter 605 frequency 14
[OGL LOG][Proc: 0]p: generate_solver: 0.015 [ms]
[OGL LOG][Proc: 0]p: solve: 3815.936 [ms]
[OGL LOG][Proc: 0]p: copy_x_back: 6.434 [ms]
[OGL LOG][lduLduBase.H:330] 
Statistics:
	Time per iteration: 3781 [mu s]
	Time per residual norm calculation: 1441.000000 [mu s]
	Time per iteration and DOF: 0.149870 [ns]
	Retrieve results bandwidth 2.621000 [GByte/s]
[OGL LOG][Proc: 0]p: solve_multi_gpu: 4114.327 [ms]
GISAIcudaGKOCG:  Solving for p, Initial residual = 0.9999999994975531, Final residual = 0.9999999996878248, No Iterations 1009
time step continuity errors : sum local = 19.66024127689936, global = -0.00274956280896521, cumulative = -0.007849698108923869
smoothSolver:  Solving for nuTilda, Initial residual = 0.1915995896966893, Final residual = 0.01335991932294117, No Iterations 11
ExecutionTime = 159.28 s  ClockTime = 160 s

Time = 5

velocityDampingConstraint velocityDamping damped 125320 (0.5%) of cells, with max limit 300
smoothSolver:  Solving for Ux, Initial residual = 0.4495031243891676, Final residual = 0.03117707366531434, No Iterations 6
smoothSolver:  Solving for Uy, Initial residual = 0.4334284654526387, Final residual = 0.02390320354466688, No Iterations 8
smoothSolver:  Solving for Uz, Initial residual = 0.4402216237092554, Final residual = 0.02112061811752097, No Iterations 7
[OGL LOG][Proc: 0]: global_index_init: 0.021 [ms]
[OGL LOG][Proc: 0]p_local_coeffs: call_update: 0 [ms]
[OGL LOG][Proc: 0]p_non_local_coeffs: call_update: 0 [ms]
[OGL LOG][Proc: 0]p: update_local_matrix_data: 82.889 [ms]
[OGL LOG][Proc: 0]p: update_non_local_matrix_data: 0.606 [ms]
[OGL LOG][Proc: 0]p_matrix: call_update: 2.653 [ms]
[OGL LOG][Proc: 0]p_rhs: call_update: 2.592 [ms]
[OGL LOG][Preconditioner.H:271] Generate preconditioner GISAI SparsityPower 1
[OGL LOG][Proc: 0]p: init_precond: 273.202 [ms]
[OGL LOG][StoppingCriterion.H:239] Creating stopping criterion with minIter 605 frequency 14
[OGL LOG][Proc: 0]p: generate_solver: 0.016 [ms]
[OGL LOG][Proc: 0]p: solve: 3792.677 [ms]
[OGL LOG][Proc: 0]p: copy_x_back: 6.259 [ms]
[OGL LOG][lduLduBase.H:330] 
Statistics:
	Time per iteration: 3758 [mu s]
	Time per residual norm calculation: 991.000000 [mu s]
	Time per iteration and DOF: 0.148958 [ns]
	Retrieve results bandwidth 2.694000 [GByte/s]
[OGL LOG][Proc: 0]p: solve_multi_gpu: 4089.499 [ms]
GISAIcudaGKOCG:  Solving for p, Initial residual = 0.9999999996826184, Final residual = 0.9999999997386086, No Iterations 1009
time step continuity errors : sum local = 79.17173129640584, global = -0.003371305925594911, cumulative = -0.01122100403451878
smoothSolver:  Solving for nuTilda, Initial residual = 0.3817565711605923, Final residual = 0.02936341920174694, No Iterations 5
ExecutionTime = 173.04 s  ClockTime = 174 s

Time = 6

velocityDampingConstraint velocityDamping damped 173812 (0.6900000000000001%) of cells, with max limit 300
smoothSolver:  Solving for Ux, Initial residual = 0.4723047510495009, Final residual = 0.01722212415477111, No Iterations 1
smoothSolver:  Solving for Uy, Initial residual = 0.4660436343865725, Final residual = 0.01149573946226212, No Iterations 1
smoothSolver:  Solving for Uz, Initial residual = 0.4756786000989515, Final residual = 0.02911067736402081, No Iterations 2
[OGL LOG][Proc: 0]: global_index_init: 0.099 [ms]
[OGL LOG][Proc: 0]p_local_coeffs: call_update: 0 [ms]
[OGL LOG][Proc: 0]p_non_local_coeffs: call_update: 0 [ms]
[OGL LOG][Proc: 0]p: update_local_matrix_data: 88.736 [ms]
[OGL LOG][Proc: 0]p: update_non_local_matrix_data: 0.573 [ms]
[OGL LOG][Proc: 0]p_matrix: call_update: 2.185 [ms]
[OGL LOG][Proc: 0]p_rhs: call_update: 3.327 [ms]
[OGL LOG][Preconditioner.H:271] Generate preconditioner GISAI SparsityPower 1
[OGL LOG][Proc: 0]p: init_precond: 298.959 [ms]
[OGL LOG][StoppingCriterion.H:239] Creating stopping criterion with minIter 605 frequency 11
[OGL LOG][Proc: 0]p: generate_solver: 0.017 [ms]
[OGL LOG][Proc: 0]p: solve: 3781.132 [ms]
[OGL LOG][Proc: 0]p: copy_x_back: 6.836 [ms]
[OGL LOG][lduLduBase.H:330] 
Statistics:
	Time per iteration: 3773 [mu s]
	Time per residual norm calculation: 1424.000000 [mu s]
	Time per iteration and DOF: 0.149553 [ns]
	Retrieve results bandwidth 2.467000 [GByte/s]
[OGL LOG][Proc: 0]p: solve_multi_gpu: 4095.662 [ms]
GISAIcudaGKOCG:  Solving for p, Initial residual = 0.9999999996336653, Final residual = 0.9999999996242209, No Iterations 1002
time step continuity errors : sum local = 93.65412681857148, global = -0.003700675437923795, cumulative = -0.01492167947244257
smoothSolver:  Solving for nuTilda, Initial residual = 0.2953658618957524, Final residual = 0.02067028917858017, No Iterations 8
ExecutionTime = 186.01 s  ClockTime = 187 s

Time = 7

velocityDampingConstraint velocityDamping damped 186620 (0.74%) of cells, with max limit 300
smoothSolver:  Solving for Ux, Initial residual = 0.5108277317370615, Final residual = 0.02836279580317705, No Iterations 2
smoothSolver:  Solving for Uy, Initial residual = 0.4930733149749683, Final residual = 0.04710600693246082, No Iterations 2
smoothSolver:  Solving for Uz, Initial residual = 0.5135714373191985, Final residual = 0.03445125026297461, No Iterations 2
[OGL LOG][Proc: 0]: global_index_init: 0.019 [ms]
[OGL LOG][Proc: 0]p_local_coeffs: call_update: 0 [ms]
[OGL LOG][Proc: 0]p_non_local_coeffs: call_update: 0 [ms]
[OGL LOG][Proc: 0]p: update_local_matrix_data: 69.758 [ms]
[OGL LOG][Proc: 0]p: update_non_local_matrix_data: 0.5629999999999999 [ms]
[OGL LOG][Proc: 0]p_matrix: call_update: 2.979 [ms]
[OGL LOG][Proc: 0]p_rhs: call_update: 2.419 [ms]
[OGL LOG][Preconditioner.H:271] Generate preconditioner GISAI SparsityPower 1
[OGL LOG][Proc: 0]p: init_precond: 305.453 [ms]
[OGL LOG][StoppingCriterion.H:239] Creating stopping criterion with minIter 601 frequency 14
[OGL LOG][Proc: 0]p: generate_solver: 0.015 [ms]
[OGL LOG][Proc: 0]p: solve: 4197.319 [ms]
[OGL LOG][Proc: 0]p: copy_x_back: 6.5 [ms]
[OGL LOG][lduLduBase.H:330] 
Statistics:
	Time per iteration: 4159 [mu s]
	Time per residual norm calculation: 1291.000000 [mu s]
	Time per iteration and DOF: 0.164853 [ns]
	Retrieve results bandwidth 2.594000 [GByte/s]
[OGL LOG][Proc: 0]p: solve_multi_gpu: 4537.171 [ms]
GISAIcudaGKOCG:  Solving for p, Initial residual = 0.9999999998404334, Final residual = 0.9999999999016629, No Iterations 1009
time step continuity errors : sum local = 191.3281672575098, global = -0.004147643092227734, cumulative = -0.01906932256467031
smoothSolver:  Solving for nuTilda, Initial residual = 0.2731598696147292, Final residual = 0.01537986762500429, No Iterations 10
ExecutionTime = 199.8 s  ClockTime = 200 s

Time = 8

velocityDampingConstraint velocityDamping damped 188696 (0.75%) of cells, with max limit 300
smoothSolver:  Solving for Ux, Initial residual = 0.4970659622826502, Final residual = 0.01748877083748592, No Iterations 3
smoothSolver:  Solving for Uy, Initial residual = 0.5256673722764473, Final residual = 0.02781370267548472, No Iterations 3
smoothSolver:  Solving for Uz, Initial residual = 0.4933673987632788, Final residual = 0.0188349079659101, No Iterations 3
[OGL LOG][Proc: 0]: global_index_init: 0.02 [ms]
[OGL LOG][Proc: 0]p_local_coeffs: call_update: 0 [ms]
[OGL LOG][Proc: 0]p_non_local_coeffs: call_update: 0 [ms]
[OGL LOG][Proc: 0]p: update_local_matrix_data: 87.571 [ms]
[OGL LOG][Proc: 0]p: update_non_local_matrix_data: 0.503 [ms]
[OGL LOG][Proc: 0]p_matrix: call_update: 2.136 [ms]
[OGL LOG][Proc: 0]p_rhs: call_update: 3.357 [ms]
[OGL LOG][Preconditioner.H:271] Generate preconditioner GISAI SparsityPower 1
[OGL LOG][Proc: 0]p: init_precond: 295.972 [ms]
[OGL LOG][StoppingCriterion.H:239] Creating stopping criterion with minIter 605 frequency 11
[OGL LOG][Proc: 0]p: generate_solver: 0.015 [ms]
[OGL LOG][Proc: 0]p: solve: 3791.52 [ms]
[OGL LOG][Proc: 0]p: copy_x_back: 6.408 [ms]
[OGL LOG][lduLduBase.H:330] 
Statistics:
	Time per iteration: 3783 [mu s]
	Time per residual norm calculation: 1272.000000 [mu s]
	Time per iteration and DOF: 0.149949 [ns]
	Retrieve results bandwidth 2.632000 [GByte/s]
[OGL LOG][Proc: 0]p: solve_multi_gpu: 4102.858 [ms]
GISAIcudaGKOCG:  Solving for p, Initial residual = 0.9999999998585068, Final residual = 0.999999999857944, No Iterations 1002
time step continuity errors : sum local = 366.5628945787379, global = -0.004654767218181339, cumulative = -0.02372408978285165
smoothSolver:  Solving for nuTilda, Initial residual = 0.4949169070735667, Final residual = 0.0319759980067205, No Iterations 8
ExecutionTime = 213.25 s  ClockTime = 214 s

Time = 9

velocityDampingConstraint velocityDamping damped 204320 (0.8100000000000001%) of cells, with max limit 300
smoothSolver:  Solving for Ux, Initial residual = 0.499920077397741, Final residual = 0.0310572625231036, No Iterations 3
smoothSolver:  Solving for Uy, Initial residual = 0.4952872289254829, Final residual = 0.03173472950730738, No Iterations 3
smoothSolver:  Solving for Uz, Initial residual = 0.5950470346568367, Final residual = 0.04583150595347811, No Iterations 1
[OGL LOG][Proc: 0]: global_index_init: 0.08699999999999999 [ms]
[OGL LOG][Proc: 0]p_local_coeffs: call_update: 0 [ms]
[OGL LOG][Proc: 0]p_non_local_coeffs: call_update: 0 [ms]
[OGL LOG][Proc: 0]p: update_local_matrix_data: 86.142 [ms]
[OGL LOG][Proc: 0]p: update_non_local_matrix_data: 0.5679999999999999 [ms]
[OGL LOG][Proc: 0]p_matrix: call_update: 3.112 [ms]
[OGL LOG][Proc: 0]p_rhs: call_update: 2.404 [ms]
[OGL LOG][Preconditioner.H:271] Generate preconditioner GISAI SparsityPower 1
[OGL LOG][Proc: 0]p: init_precond: 307.113 [ms]
[OGL LOG][StoppingCriterion.H:239] Creating stopping criterion with minIter 601 frequency 14
[OGL LOG][Proc: 0]p: generate_solver: 0.014 [ms]
[OGL LOG][Proc: 0]p: solve: 3797.437 [ms]
[OGL LOG][Proc: 0]p: copy_x_back: 6.228 [ms]
[OGL LOG][lduLduBase.H:330] 
Statistics:
	Time per iteration: 3763 [mu s]
	Time per residual norm calculation: 1288.000000 [mu s]
	Time per iteration and DOF: 0.149156 [ns]
	Retrieve results bandwidth 2.708000 [GByte/s]
[OGL LOG][Proc: 0]p: solve_multi_gpu: 4120.169 [ms]
GISAIcudaGKOCG:  Solving for p, Initial residual = 0.99999999986709, Final residual = 0.9999999998542431, No Iterations 1009
time step continuity errors : sum local = 368.3643712864431, global = -0.005144489399108926, cumulative = -0.02886857918196057
smoothSolver:  Solving for nuTilda, Initial residual = 0.3011365781838589, Final residual = 0.02185501514160904, No Iterations 4
ExecutionTime = 226.25 s  ClockTime = 227 s

Time = 10

velocityDampingConstraint velocityDamping damped 208752 (0.8300000000000001%) of cells, with max limit 300
smoothSolver:  Solving for Ux, Initial residual = 0.5103801657772187, Final residual = 0.04717036008949462, No Iterations 2
smoothSolver:  Solving for Uy, Initial residual = 0.5083533314588821, Final residual = 0.04960116993033811, No Iterations 2
smoothSolver:  Solving for Uz, Initial residual = 0.5029875622643732, Final residual = 0.04794359822536631, No Iterations 2
[OGL LOG][Proc: 0]: global_index_init: 0.031 [ms]
[OGL LOG][Proc: 0]p_local_coeffs: call_update: 0 [ms]
[OGL LOG][Proc: 0]p_non_local_coeffs: call_update: 0 [ms]
[OGL LOG][Proc: 0]p: update_local_matrix_data: 88.11 [ms]
[OGL LOG][Proc: 0]p: update_non_local_matrix_data: 0.592 [ms]
[OGL LOG][Proc: 0]p_matrix: call_update: 3.396 [ms]
[OGL LOG][Proc: 0]p_rhs: call_update: 2.276 [ms]
[OGL LOG][Preconditioner.H:271] Generate preconditioner GISAI SparsityPower 1
[OGL LOG][Proc: 0]p: init_precond: 294.732 [ms]
[OGL LOG][StoppingCriterion.H:239] Creating stopping criterion with minIter 605 frequency 14
[OGL LOG][Proc: 0]p: generate_solver: 0.018 [ms]
[OGL LOG][Proc: 0]p: solve: 3809.983 [ms]
[OGL LOG][Proc: 0]p: copy_x_back: 6.913 [ms]
[OGL LOG][lduLduBase.H:330] 
Statistics:
	Time per iteration: 3775 [mu s]
	Time per residual norm calculation: 1425.000000 [mu s]
	Time per iteration and DOF: 0.149632 [ns]
	Retrieve results bandwidth 2.439000 [GByte/s]
[OGL LOG][Proc: 0]p: solve_multi_gpu: 4120.731 [ms]
GISAIcudaGKOCG:  Solving for p, Initial residual = 0.9999999998520935, Final residual = 0.9999999998213084, No Iterations 1009
time step continuity errors : sum local = 235.9768794973195, global = -0.00556727415326624, cumulative = -0.03443585333522681
smoothSolver:  Solving for nuTilda, Initial residual = 0.2581807287753884, Final residual = 0.01936791559377153, No Iterations 4
ExecutionTime = 239.22 s  ClockTime = 240 s

Time = 11

velocityDampingConstraint velocityDamping damped 215724 (0.86%) of cells, with max limit 300
smoothSolver:  Solving for Ux, Initial residual = 0.5302093314381017, Final residual = 0.04137139738671453, No Iterations 2
smoothSolver:  Solving for Uy, Initial residual = 0.5394929131166706, Final residual = 0.05208905865335336, No Iterations 2
smoothSolver:  Solving for Uz, Initial residual = 0.5587960018586294, Final residual = 0.0376723424796277, No Iterations 2
[OGL LOG][Proc: 0]: global_index_init: 0.02 [ms]
[OGL LOG][Proc: 0]p_local_coeffs: call_update: 0 [ms]
[OGL LOG][Proc: 0]p_non_local_coeffs: call_update: 0 [ms]
[OGL LOG][Proc: 0]p: update_local_matrix_data: 90.34699999999999 [ms]
[OGL LOG][Proc: 0]p: update_non_local_matrix_data: 0.571 [ms]
[OGL LOG][Proc: 0]p_matrix: call_update: 3.195 [ms]
[OGL LOG][Proc: 0]p_rhs: call_update: 2.27 [ms]
[OGL LOG][Preconditioner.H:271] Generate preconditioner GISAI SparsityPower 1
[OGL LOG][Proc: 0]p: init_precond: 273.759 [ms]
[OGL LOG][StoppingCriterion.H:239] Creating stopping criterion with minIter 605 frequency 14
[OGL LOG][Proc: 0]p: generate_solver: 0.014 [ms]
[OGL LOG][Proc: 0]p: solve: 4196.388 [ms]
[OGL LOG][Proc: 0]p: copy_x_back: 6.629 [ms]
[OGL LOG][lduLduBase.H:330] 
Statistics:
	Time per iteration: 4158 [mu s]
	Time per residual norm calculation: 1434.000000 [mu s]
	Time per iteration and DOF: 0.164813 [ns]
	Retrieve results bandwidth 2.544000 [GByte/s]
[OGL LOG][Proc: 0]p: solve_multi_gpu: 4485.442 [ms]
GISAIcudaGKOCG:  Solving for p, Initial residual = 0.9999999998681361, Final residual = 0.9999999998568496, No Iterations 1009
time step continuity errors : sum local = 192.3411418788638, global = -0.005988960745567943, cumulative = -0.04042481408079476
smoothSolver:  Solving for nuTilda, Initial residual = 0.2498651402589107, Final residual = 0.02290905129795537, No Iterations 5
ExecutionTime = 252.59 s  ClockTime = 253 s

Time = 12

velocityDampingConstraint velocityDamping damped 215252 (0.85%) of cells, with max limit 300
smoothSolver:  Solving for Ux, Initial residual = 0.5094871625557896, Final residual = 0.01576077665957557, No Iterations 3
smoothSolver:  Solving for Uy, Initial residual = 0.5363735135769311, Final residual = 0.02322011592956929, No Iterations 3
smoothSolver:  Solving for Uz, Initial residual = 0.5232989663465794, Final residual = 0.0243955389454334, No Iterations 3
[OGL LOG][Proc: 0]: global_index_init: 0.02 [ms]
[OGL LOG][Proc: 0]p_local_coeffs: call_update: 0 [ms]
[OGL LOG][Proc: 0]p_non_local_coeffs: call_update: 0 [ms]
[OGL LOG][Proc: 0]p: update_local_matrix_data: 83.60599999999999 [ms]
[OGL LOG][Proc: 0]p: update_non_local_matrix_data: 0.579 [ms]
[OGL LOG][Proc: 0]p_matrix: call_update: 3.188 [ms]
[OGL LOG][Proc: 0]p_rhs: call_update: 2.273 [ms]
[OGL LOG][Preconditioner.H:271] Generate preconditioner GISAI SparsityPower 1
[OGL LOG][Proc: 0]p: init_precond: 294.212 [ms]
[OGL LOG][StoppingCriterion.H:239] Creating stopping criterion with minIter 605 frequency 14
[OGL LOG][Proc: 0]p: generate_solver: 0.015 [ms]
[OGL LOG][Proc: 0]p: solve: 3811.238 [ms]
[OGL LOG][Proc: 0]p: copy_x_back: 6.317 [ms]
[OGL LOG][lduLduBase.H:330] 
Statistics:
	Time per iteration: 3777 [mu s]
	Time per residual norm calculation: 1419.000000 [mu s]
	Time per iteration and DOF: 0.149711 [ns]
	Retrieve results bandwidth 2.670000 [GByte/s]
[OGL LOG][Proc: 0]p: solve_multi_gpu: 4126.124 [ms]
GISAIcudaGKOCG:  Solving for p, Initial residual = 0.9999999998385792, Final residual = 0.9999999997538888, No Iterations 1009
time step continuity errors : sum local = 190.6457646491114, global = -0.006475619664121384, cumulative = -0.04690043374491614
smoothSolver:  Solving for nuTilda, Initial residual = 0.2414580257148227, Final residual = 0.01797281887912728, No Iterations 5
ExecutionTime = 265.85 s  ClockTime = 267 s

Time = 13

velocityDampingConstraint velocityDamping damped 208872 (0.8300000000000001%) of cells, with max limit 300
smoothSolver:  Solving for Ux, Initial residual = 0.5486877969498325, Final residual = 0.03305138538774053, No Iterations 2
smoothSolver:  Solving for Uy, Initial residual = 0.5390198547258396, Final residual = 0.0184734598065468, No Iterations 3
smoothSolver:  Solving for Uz, Initial residual = 0.5165649630965585, Final residual = 0.05065803872584479, No Iterations 2
[OGL LOG][Proc: 0]: global_index_init: 0.106 [ms]
[OGL LOG][Proc: 0]p_local_coeffs: call_update: 0 [ms]
[OGL LOG][Proc: 0]p_non_local_coeffs: call_update: 0 [ms]
[OGL LOG][Proc: 0]p: update_local_matrix_data: 89.56699999999999 [ms]
[OGL LOG][Proc: 0]p: update_non_local_matrix_data: 0.584 [ms]
[OGL LOG][Proc: 0]p_matrix: call_update: 3.392 [ms]
[OGL LOG][Proc: 0]p_rhs: call_update: 2.224 [ms]
[OGL LOG][Preconditioner.H:271] Generate preconditioner GISAI SparsityPower 1
[OGL LOG][Proc: 0]p: init_precond: 292.26 [ms]
[OGL LOG][StoppingCriterion.H:239] Creating stopping criterion with minIter 605 frequency 14
[OGL LOG][Proc: 0]p: generate_solver: 0.016 [ms]
[OGL LOG][Proc: 0]p: solve: 3812.8 [ms]
[OGL LOG][Proc: 0]p: copy_x_back: 6.247 [ms]
[OGL LOG][lduLduBase.H:330] 
Statistics:
	Time per iteration: 3778 [mu s]
	Time per residual norm calculation: 1430.000000 [mu s]
	Time per iteration and DOF: 0.149751 [ns]
	Retrieve results bandwidth 2.700000 [GByte/s]
[OGL LOG][Proc: 0]p: solve_multi_gpu: 4120.321 [ms]
GISAIcudaGKOCG:  Solving for p, Initial residual = 0.9999999995971993, Final residual = 0.9999999996097838, No Iterations 1009
time step continuity errors : sum local = 197.5950790238662, global = -0.006888873513298876, cumulative = -0.05378930725821501
smoothSolver:  Solving for nuTilda, Initial residual = 0.2298364644172068, Final residual = 0.01373669189992638, No Iterations 5
ExecutionTime = 278.93 s  ClockTime = 280 s

Time = 14

velocityDampingConstraint velocityDamping damped 204477 (0.8100000000000001%) of cells, with max limit 300
smoothSolver:  Solving for Ux, Initial residual = 0.5202935596598465, Final residual = 0.01556650478079511, No Iterations 3
smoothSolver:  Solving for Uy, Initial residual = 0.5647654438742392, Final residual = 0.01907003109029656, No Iterations 3
smoothSolver:  Solving for Uz, Initial residual = 0.5155476427252681, Final residual = 0.01578857991972711, No Iterations 3
[OGL LOG][Proc: 0]: global_index_init: 0.021 [ms]
[OGL LOG][Proc: 0]p_local_coeffs: call_update: 0 [ms]
[OGL LOG][Proc: 0]p_non_local_coeffs: call_update: 0 [ms]
[OGL LOG][Proc: 0]p: update_local_matrix_data: 83.221 [ms]
[OGL LOG][Proc: 0]p: update_non_local_matrix_data: 0.575 [ms]
[OGL LOG][Proc: 0]p_matrix: call_update: 3.15 [ms]
[OGL LOG][Proc: 0]p_rhs: call_update: 3.314 [ms]
[OGL LOG][Preconditioner.H:271] Generate preconditioner GISAI SparsityPower 1
[OGL LOG][Proc: 0]p: init_precond: 302.004 [ms]
[OGL LOG][StoppingCriterion.H:239] Creating stopping criterion with minIter 605 frequency 14
[OGL LOG][Proc: 0]p: generate_solver: 0.016 [ms]
[OGL LOG][Proc: 0]p: solve: 3822.384 [ms]
[OGL LOG][Proc: 0]p: copy_x_back: 6.382 [ms]
[OGL LOG][lduLduBase.H:330] 
Statistics:
	Time per iteration: 3788 [mu s]
	Time per residual norm calculation: 988.000000 [mu s]
	Time per iteration and DOF: 0.150147 [ns]
	Retrieve results bandwidth 2.642000 [GByte/s]
[OGL LOG][Proc: 0]p: solve_multi_gpu: 4144.343 [ms]
GISAIcudaGKOCG:  Solving for p, Initial residual = 0.9999999994281831, Final residual = 0.9999999994109303, No Iterations 1009
time step continuity errors : sum local = 177.358960120795, global = -0.007365869044524085, cumulative = -0.0611551763027391
smoothSolver:  Solving for nuTilda, Initial residual = 0.190872535490016, Final residual = 0.01148560301052669, No Iterations 6
ExecutionTime = 292.05 s  ClockTime = 293 s

Time = 15

velocityDampingConstraint velocityDamping damped 196584 (0.78%) of cells, with max limit 300
smoothSolver:  Solving for Ux, Initial residual = 0.5251395544832298, Final residual = 0.04313776526002579, No Iterations 2
smoothSolver:  Solving for Uy, Initial residual = 0.5215263158346559, Final residual = 0.01443007256017907, No Iterations 3
smoothSolver:  Solving for Uz, Initial residual = 0.5560192267733306, Final residual = 0.02248968219585733, No Iterations 2
[OGL LOG][Proc: 0]: global_index_init: 0.033 [ms]
[OGL LOG][Proc: 0]p_local_coeffs: call_update: 0 [ms]
[OGL LOG][Proc: 0]p_non_local_coeffs: call_update: 0 [ms]
[OGL LOG][Proc: 0]p: update_local_matrix_data: 85.867 [ms]
[OGL LOG][Proc: 0]p: update_non_local_matrix_data: 0.611 [ms]
[OGL LOG][Proc: 0]p_matrix: call_update: 3.334 [ms]
[OGL LOG][Proc: 0]p_rhs: call_update: 2.389 [ms]
[OGL LOG][Preconditioner.H:271] Generate preconditioner GISAI SparsityPower 1
[OGL LOG][Proc: 0]p: init_precond: 300.469 [ms]
[OGL LOG][StoppingCriterion.H:239] Creating stopping criterion with minIter 605 frequency 11
[OGL LOG][Proc: 0]p: generate_solver: 0.015 [ms]
[OGL LOG][Proc: 0]p: solve: 3782.209 [ms]
[OGL LOG][Proc: 0]p: copy_x_back: 6.318 [ms]
[OGL LOG][lduLduBase.H:330] 
Statistics:
	Time per iteration: 3774 [mu s]
	Time per residual norm calculation: 1287.000000 [mu s]
	Time per iteration and DOF: 0.149592 [ns]
	Retrieve results bandwidth 2.669000 [GByte/s]
[OGL LOG][Proc: 0]p: solve_multi_gpu: 4101.676 [ms]
GISAIcudaGKOCG:  Solving for p, Initial residual = 0.9999999994996838, Final residual = 0.9999999994677822, No Iterations 1002
time step continuity errors : sum local = 175.3134470456536, global = -0.007770016645245336, cumulative = -0.06892519294798444
smoothSolver:  Solving for nuTilda, Initial residual = 0.2072534938583444, Final residual = 0.0173300858761525, No Iterations 3
ExecutionTime = 304.89 s  ClockTime = 306 s

Time = 16

velocityDampingConstraint velocityDamping damped 195429 (0.77%) of cells, with max limit 300
smoothSolver:  Solving for Ux, Initial residual = 0.5257154998262511, Final residual = 0.0334374349144829, No Iterations 3
smoothSolver:  Solving for Uy, Initial residual = 0.5306108312455207, Final residual = 0.04902508355206942, No Iterations 2
smoothSolver:  Solving for Uz, Initial residual = 0.4984082935640878, Final residual = 0.03231775705738238, No Iterations 2
[OGL LOG][Proc: 0]: global_index_init: 0.394 [ms]
[OGL LOG][Proc: 0]p_local_coeffs: call_update: 0 [ms]
[OGL LOG][Proc: 0]p_non_local_coeffs: call_update: 0 [ms]
[OGL LOG][Proc: 0]p: update_local_matrix_data: 78.14 [ms]
[OGL LOG][Proc: 0]p: update_non_local_matrix_data: 0.517 [ms]
[OGL LOG][Proc: 0]p_matrix: call_update: 2.699 [ms]
[OGL LOG][Proc: 0]p_rhs: call_update: 2.53 [ms]
[OGL LOG][Preconditioner.H:271] Generate preconditioner GISAI SparsityPower 1
[OGL LOG][Proc: 0]p: init_precond: 283.55 [ms]
[OGL LOG][StoppingCriterion.H:239] Creating stopping criterion with minIter 601 frequency 14
[OGL LOG][Proc: 0]p: generate_solver: 0.015 [ms]
[OGL LOG][Proc: 0]p: solve: 4219.157 [ms]
[OGL LOG][Proc: 0]p: copy_x_back: 6.25 [ms]
[OGL LOG][lduLduBase.H:330] 
Statistics:
	Time per iteration: 4181 [mu s]
	Time per residual norm calculation: 988.000000 [mu s]
	Time per iteration and DOF: 0.165725 [ns]
	Retrieve results bandwidth 2.698000 [GByte/s]
[OGL LOG][Proc: 0]p: solve_multi_gpu: 4527.906 [ms]
GISAIcudaGKOCG:  Solving for p, Initial residual = 0.9999999996564746, Final residual = 0.9999999996249576, No Iterations 1009
time step continuity errors : sum local = 268.3515810981924, global = -0.008236803992390674, cumulative = -0.07716199694037511
smoothSolver:  Solving for nuTilda, Initial residual = 0.2563798869388434, Final residual = 0.02532107532520265, No Iterations 3
ExecutionTime = 318.11 s  ClockTime = 319 s

Time = 17

velocityDampingConstraint velocityDamping damped 187744 (0.74%) of cells, with max limit 300
smoothSolver:  Solving for Ux, Initial residual = 0.570795513971055, Final residual = 0.01993242677358215, No Iterations 2
smoothSolver:  Solving for Uy, Initial residual = 0.5154463918751335, Final residual = 0.05079656997949147, No Iterations 2
smoothSolver:  Solving for Uz, Initial residual = 0.5362059237723734, Final residual = 0.04735797634196188, No Iterations 2
[OGL LOG][Proc: 0]: global_index_init: 0.021 [ms]
[OGL LOG][Proc: 0]p_local_coeffs: call_update: 0 [ms]
[OGL LOG][Proc: 0]p_non_local_coeffs: call_update: 0 [ms]
[OGL LOG][Proc: 0]p: update_local_matrix_data: 82.976 [ms]
[OGL LOG][Proc: 0]p: update_non_local_matrix_data: 0.533 [ms]
[OGL LOG][Proc: 0]p_matrix: call_update: 3.241 [ms]
[OGL LOG][Proc: 0]p_rhs: call_update: 2.307 [ms]
[OGL LOG][Preconditioner.H:271] Generate preconditioner GISAI SparsityPower 1
[OGL LOG][Proc: 0]p: init_precond: 297.887 [ms]
[OGL LOG][StoppingCriterion.H:239] Creating stopping criterion with minIter 605 frequency 10
[OGL LOG][Proc: 0]p: generate_solver: 0.015 [ms]
[OGL LOG][Proc: 0]p: solve: 3789.7 [ms]
[OGL LOG][Proc: 0]p: copy_x_back: 6.362 [ms]
[OGL LOG][lduLduBase.H:330] 
Statistics:
	Time per iteration: 3785 [mu s]
	Time per residual norm calculation: 990.000000 [mu s]
	Time per iteration and DOF: 0.150028 [ns]
	Retrieve results bandwidth 2.651000 [GByte/s]
[OGL LOG][Proc: 0]p: solve_multi_gpu: 4109.67 [ms]
GISAIcudaGKOCG:  Solving for p, Initial residual = 0.9999999995328213, Final residual = 0.9999999995015405, No Iterations 1001
time step continuity errors : sum local = 327.559374507036, global = -0.008630870450002274, cumulative = -0.08579286739037738
smoothSolver:  Solving for nuTilda, Initial residual = 0.2321826476171696, Final residual = 0.0098404469189281, No Iterations 4
ExecutionTime = 330.98 s  ClockTime = 332 s

Time = 18

velocityDampingConstraint velocityDamping damped 182027 (0.72%) of cells, with max limit 300
smoothSolver:  Solving for Ux, Initial residual = 0.5052778215031506, Final residual = 0.01764483051775631, No Iterations 2
smoothSolver:  Solving for Uy, Initial residual = 0.5223402005775725, Final residual = 0.01489204491875953, No Iterations 2
smoothSolver:  Solving for Uz, Initial residual = 0.5227605104630894, Final residual = 0.02679643722297345, No Iterations 2
[OGL LOG][Proc: 0]: global_index_init: 1.417 [ms]
[OGL LOG][Proc: 0]p_local_coeffs: call_update: 0 [ms]
[OGL LOG][Proc: 0]p_non_local_coeffs: call_update: 0 [ms]
[OGL LOG][Proc: 0]p: update_local_matrix_data: 89.712 [ms]
[OGL LOG][Proc: 0]p: update_non_local_matrix_data: 0.584 [ms]
[OGL LOG][Proc: 0]p_matrix: call_update: 6.182 [ms]
[OGL LOG][Proc: 0]p_rhs: call_update: 2.592 [ms]
[OGL LOG][Preconditioner.H:271] Generate preconditioner GISAI SparsityPower 1
[OGL LOG][Proc: 0]p: init_precond: 281.817 [ms]
[OGL LOG][StoppingCriterion.H:239] Creating stopping criterion with minIter 600 frequency 11
[OGL LOG][Proc: 0]p: generate_solver: 0.017 [ms]
[OGL LOG][Proc: 0]p: solve: 3786.853 [ms]
[OGL LOG][Proc: 0]p: copy_x_back: 6.298 [ms]
[OGL LOG][lduLduBase.H:330] 
Statistics:
	Time per iteration: 3779 [mu s]
	Time per residual norm calculation: 1432.000000 [mu s]
	Time per iteration and DOF: 0.149791 [ns]
	Retrieve results bandwidth 2.678000 [GByte/s]
[OGL LOG][Proc: 0]p: solve_multi_gpu: 4094.976 [ms]
GISAIcudaGKOCG:  Solving for p, Initial residual = 0.9999999995352347, Final residual = 0.9999999995366636, No Iterations 1002
time step continuity errors : sum local = 345.3918693803371, global = -0.009028685623909349, cumulative = -0.09482155301428673
smoothSolver:  Solving for nuTilda, Initial residual = 0.2125993267206465, Final residual = 0.02114111999952018, No Iterations 5
ExecutionTime = 344.02 s  ClockTime = 345 s

Time = 19

velocityDampingConstraint velocityDamping damped 179170 (0.71%) of cells, with max limit 300
smoothSolver:  Solving for Ux, Initial residual = 0.4829503172538379, Final residual = 0.01060658790953131, No Iterations 3
smoothSolver:  Solving for Uy, Initial residual = 0.4836416857268397, Final residual = 0.01301908627005115, No Iterations 3
smoothSolver:  Solving for Uz, Initial residual = 0.4858546156665308, Final residual = 0.006519224886671841, No Iterations 3
[OGL LOG][Proc: 0]: global_index_init: 0.126 [ms]
[OGL LOG][Proc: 0]p_local_coeffs: call_update: 0 [ms]
[OGL LOG][Proc: 0]p_non_local_coeffs: call_update: 0 [ms]
[OGL LOG][Proc: 0]p: update_local_matrix_data: 90.18000000000001 [ms]
[OGL LOG][Proc: 0]p: update_non_local_matrix_data: 0.604 [ms]
[OGL LOG][Proc: 0]p_matrix: call_update: 3.362 [ms]
[OGL LOG][Proc: 0]p_rhs: call_update: 2.089 [ms]
[OGL LOG][Preconditioner.H:271] Generate preconditioner GISAI SparsityPower 1
[OGL LOG][Proc: 0]p: init_precond: 302.219 [ms]
[OGL LOG][StoppingCriterion.H:239] Creating stopping criterion with minIter 601 frequency 14
[OGL LOG][Proc: 0]p: generate_solver: 0.015 [ms]
[OGL LOG][Proc: 0]p: solve: 3806.379 [ms]
[OGL LOG][Proc: 0]p: copy_x_back: 6.272 [ms]
[OGL LOG][lduLduBase.H:330] 
Statistics:
	Time per iteration: 3772 [mu s]
	Time per residual norm calculation: 1431.000000 [mu s]
	Time per iteration and DOF: 0.149513 [ns]
	Retrieve results bandwidth 2.689000 [GByte/s]
[OGL LOG][Proc: 0]p: solve_multi_gpu: 4123.556 [ms]
GISAIcudaGKOCG:  Solving for p, Initial residual = 0.9999999996885911, Final residual = 1.000000000052859, No Iterations 1009
time step continuity errors : sum local = 427.9779335542704, global = -0.009470138829459478, cumulative = -0.1042916918437462
smoothSolver:  Solving for nuTilda, Initial residual = 0.2331609901567826, Final residual = 0.01299890673253656, No Iterations 4
ExecutionTime = 357.12 s  ClockTime = 358 s

Time = 20

velocityDampingConstraint velocityDamping damped 173031 (0.6900000000000001%) of cells, with max limit 300
smoothSolver:  Solving for Ux, Initial residual = 0.5295116683650583, Final residual = 0.03305461665830935, No Iterations 2
smoothSolver:  Solving for Uy, Initial residual = 0.497089844605133, Final residual = 0.04027529909365347, No Iterations 2
smoothSolver:  Solving for Uz, Initial residual = 0.5137902971820933, Final residual = 0.04085538709872252, No Iterations 2
[OGL LOG][Proc: 0]: global_index_init: 0.021 [ms]
[OGL LOG][Proc: 0]p_local_coeffs: call_update: 0 [ms]
[OGL LOG][Proc: 0]p_non_local_coeffs: call_update: 0 [ms]
[OGL LOG][Proc: 0]p: update_local_matrix_data: 83.76600000000001 [ms]
[OGL LOG][Proc: 0]p: update_non_local_matrix_data: 0.58 [ms]
[OGL LOG][Proc: 0]p_matrix: call_update: 3.032 [ms]
[OGL LOG][Proc: 0]p_rhs: call_update: 2.414 [ms]
[OGL LOG][Preconditioner.H:271] Generate preconditioner GISAI SparsityPower 1
[OGL LOG][Proc: 0]p: init_precond: 294.283 [ms]
[OGL LOG][StoppingCriterion.H:239] Creating stopping criterion with minIter 605 frequency 14
[OGL LOG][Proc: 0]p: generate_solver: 0.015 [ms]
[OGL LOG][Proc: 0]p: solve: 4081.32 [ms]
[OGL LOG][Proc: 0]p: copy_x_back: 6.222 [ms]
[OGL LOG][lduLduBase.H:330] 
Statistics:
	Time per iteration: 4044 [mu s]
	Time per residual norm calculation: 988.000000 [mu s]
	Time per iteration and DOF: 0.160295 [ns]
	Retrieve results bandwidth 2.710000 [GByte/s]
[OGL LOG][Proc: 0]p: solve_multi_gpu: 4395.175 [ms]
GISAIcudaGKOCG:  Solving for p, Initial residual = 0.9999999956546951, Final residual = 0.9999999953986004, No Iterations 1009
time step continuity errors : sum local = 389.2413553334798, global = -0.009852759847157109, cumulative = -0.1141444516909033
smoothSolver:  Solving for nuTilda, Initial residual = 0.2073343277888428, Final residual = 0.01123380516000817, No Iterations 6
ExecutionTime = 370.45 s  ClockTime = 372 s

Time = 21

velocityDampingConstraint velocityDamping damped 170066 (0.67%) of cells, with max limit 300
smoothSolver:  Solving for Ux, Initial residual = 0.4903630782143527, Final residual = 0.02661030065329692, No Iterations 3
smoothSolver:  Solving for Uy, Initial residual = 0.5471273566269667, Final residual = 0.0282354287392984, No Iterations 3
smoothSolver:  Solving for Uz, Initial residual = 0.4955027334452516, Final residual = 0.02346187184368102, No Iterations 3
[OGL LOG][Proc: 0]: global_index_init: 0.022 [ms]
[OGL LOG][Proc: 0]p_local_coeffs: call_update: 0 [ms]
[OGL LOG][Proc: 0]p_non_local_coeffs: call_update: 0 [ms]
[OGL LOG][Proc: 0]p: update_local_matrix_data: 89.29900000000001 [ms]
[OGL LOG][Proc: 0]p: update_non_local_matrix_data: 0.548 [ms]
[OGL LOG][Proc: 0]p_matrix: call_update: 3.143 [ms]
[OGL LOG][Proc: 0]p_rhs: call_update: 2.459 [ms]
[OGL LOG][Preconditioner.H:271] Generate preconditioner GISAI SparsityPower 1
[OGL LOG][Proc: 0]p: init_precond: 298.626 [ms]
[OGL LOG][StoppingCriterion.H:239] Creating stopping criterion with minIter 605 frequency 10
[OGL LOG][Proc: 0]p: generate_solver: 0.017 [ms]
[OGL LOG][Proc: 0]p: solve: 3784.865 [ms]
[OGL LOG][Proc: 0]p: copy_x_back: 6.49 [ms]
[OGL LOG][lduLduBase.H:330] 
Statistics:
	Time per iteration: 3781 [mu s]
	Time per residual norm calculation: 986.000000 [mu s]
	Time per iteration and DOF: 0.149870 [ns]
	Retrieve results bandwidth 2.598000 [GByte/s]
[OGL LOG][Proc: 0]p: solve_multi_gpu: 4098.913 [ms]
GISAIcudaGKOCG:  Solving for p, Initial residual = 0.9999999975816671, Final residual = 0.9999999977237566, No Iterations 1001
time step continuity errors : sum local = 381.9087253612729, global = -0.01027215804381153, cumulative = -0.1244166097347148
smoothSolver:  Solving for nuTilda, Initial residual = 0.2507619195456944, Final residual = 0.02400794060925115, No Iterations 1
ExecutionTime = 383.32 s  ClockTime = 384 s

Time = 22

velocityDampingConstraint velocityDamping damped 169008 (0.67%) of cells, with max limit 300
smoothSolver:  Solving for Ux, Initial residual = 0.5767422265662896, Final residual = 0.01336295063274927, No Iterations 1
smoothSolver:  Solving for Uy, Initial residual = 0.5787170108771132, Final residual = 0.01053219050104837, No Iterations 1
smoothSolver:  Solving for Uz, Initial residual = 0.5860257311059516, Final residual = 0.009321930928503098, No Iterations 1
[OGL LOG][Proc: 0]: global_index_init: 0.029 [ms]
[OGL LOG][Proc: 0]p_local_coeffs: call_update: 0 [ms]
[OGL LOG][Proc: 0]p_non_local_coeffs: call_update: 0 [ms]
[OGL LOG][Proc: 0]p: update_local_matrix_data: 75.56100000000001 [ms]
[OGL LOG][Proc: 0]p: update_non_local_matrix_data: 0.66 [ms]
[OGL LOG][Proc: 0]p_matrix: call_update: 3.685 [ms]
[OGL LOG][Proc: 0]p_rhs: call_update: 2.179 [ms]
[OGL LOG][Preconditioner.H:271] Generate preconditioner GISAI SparsityPower 1
[OGL LOG][Proc: 0]p: init_precond: 310.923 [ms]
[OGL LOG][StoppingCriterion.H:239] Creating stopping criterion with minIter 600 frequency 11
[OGL LOG][Proc: 0]p: generate_solver: 0.015 [ms]
[OGL LOG][Proc: 0]p: solve: 3776.29 [ms]
[OGL LOG][Proc: 0]p: copy_x_back: 6.275 [ms]
[OGL LOG][lduLduBase.H:330] 
Statistics:
	Time per iteration: 3768 [mu s]
	Time per residual norm calculation: 1440.000000 [mu s]
	Time per iteration and DOF: 0.149355 [ns]
	Retrieve results bandwidth 2.687000 [GByte/s]
[OGL LOG][Proc: 0]p: solve_multi_gpu: 4115.693 [ms]
GISAIcudaGKOCG:  Solving for p, Initial residual = 0.9999999982695055, Final residual = 0.999999999762027, No Iterations 1002
time step continuity errors : sum local = 616.6131647998078, global = -0.01054532049330203, cumulative = -0.1349619302280169
smoothSolver:  Solving for nuTilda, Initial residual = 0.2063202796679106, Final residual = 0.01743488144198999, No Iterations 7
ExecutionTime = 396.23 s  ClockTime = 397 s

Time = 23

velocityDampingConstraint velocityDamping damped 168749 (0.67%) of cells, with max limit 300
smoothSolver:  Solving for Ux, Initial residual = 0.4798333845767565, Final residual = 0.0195596390837977, No Iterations 4
smoothSolver:  Solving for Uy, Initial residual = 0.4884322123315743, Final residual = 0.01952126613002786, No Iterations 3
smoothSolver:  Solving for Uz, Initial residual = 0.4637923499874387, Final residual = 0.03636987742763017, No Iterations 4
[OGL LOG][Proc: 0]: global_index_init: 0.187 [ms]
[OGL LOG][Proc: 0]p_local_coeffs: call_update: 0 [ms]
[OGL LOG][Proc: 0]p_non_local_coeffs: call_update: 0 [ms]
[OGL LOG][Proc: 0]p: update_local_matrix_data: 89.70099999999999 [ms]
[OGL LOG][Proc: 0]p: update_non_local_matrix_data: 0.611 [ms]
[OGL LOG][Proc: 0]p_matrix: call_update: 3.448 [ms]
[OGL LOG][Proc: 0]p_rhs: call_update: 2.216 [ms]
[OGL LOG][Preconditioner.H:271] Generate preconditioner GISAI SparsityPower 1
[OGL LOG][Proc: 0]p: init_precond: 275.563 [ms]
[OGL LOG][StoppingCriterion.H:239] Creating stopping criterion with minIter 601 frequency 14
[OGL LOG][Proc: 0]p: generate_solver: 0.016 [ms]
[OGL LOG][Proc: 0]p: solve: 4186.722 [ms]
[OGL LOG][Proc: 0]p: copy_x_back: 6.545 [ms]
[OGL LOG][lduLduBase.H:330] 
Statistics:
	Time per iteration: 4149 [mu s]
	Time per residual norm calculation: 988.000000 [mu s]
	Time per iteration and DOF: 0.164457 [ns]
	Retrieve results bandwidth 2.577000 [GByte/s]
[OGL LOG][Proc: 0]p: solve_multi_gpu: 4477.435 [ms]
GISAIcudaGKOCG:  Solving for p, Initial residual = 0.9999999990293603, Final residual = 1.000000000061591, No Iterations 1009
time step continuity errors : sum local = 1582.645177434045, global = -0.01097784529271807, cumulative = -0.1459397755207349
smoothSolver:  Solving for nuTilda, Initial residual = 0.2819904164746024, Final residual = 0.00573847751817777, No Iterations 1
ExecutionTime = 409.69 s  ClockTime = 411 s

Time = 24

velocityDampingConstraint velocityDamping damped 173744 (0.6900000000000001%) of cells, with max limit 300
smoothSolver:  Solving for Ux, Initial residual = 0.5916614252410353, Final residual = 0.0006848464583321579, No Iterations 1
smoothSolver:  Solving for Uy, Initial residual = 0.5898428361452497, Final residual = 0.004469431420808549, No Iterations 1
smoothSolver:  Solving for Uz, Initial residual = 0.5835180854048637, Final residual = 0.0006845414165014154, No Iterations 1
[OGL LOG][Proc: 0]: global_index_init: 0.021 [ms]
[OGL LOG][Proc: 0]p_local_coeffs: call_update: 0 [ms]
[OGL LOG][Proc: 0]p_non_local_coeffs: call_update: 0 [ms]
[OGL LOG][Proc: 0]p: update_local_matrix_data: 83.881 [ms]
[OGL LOG][Proc: 0]p: update_non_local_matrix_data: 0.571 [ms]
[OGL LOG][Proc: 0]p_matrix: call_update: 2.98 [ms]
[OGL LOG][Proc: 0]p_rhs: call_update: 2.687 [ms]
[OGL LOG][Preconditioner.H:271] Generate preconditioner GISAI SparsityPower 1
[OGL LOG][Proc: 0]p: init_precond: 274.925 [ms]
[OGL LOG][StoppingCriterion.H:239] Creating stopping criterion with minIter 605 frequency 10
[OGL LOG][Proc: 0]p: generate_solver: 0.015 [ms]
[OGL LOG][Proc: 0]p: solve: 3807.653 [ms]
[OGL LOG][Proc: 0]p: copy_x_back: 6.215 [ms]
[OGL LOG][lduLduBase.H:330] 
Statistics:
	Time per iteration: 3803 [mu s]
	Time per residual norm calculation: 993.000000 [mu s]
	Time per iteration and DOF: 0.150742 [ns]
	Retrieve results bandwidth 2.713000 [GByte/s]
[OGL LOG][Proc: 0]p: solve_multi_gpu: 4099.454 [ms]
GISAIcudaGKOCG:  Solving for p, Initial residual = 0.9999999966531382, Final residual = 0.9999999958528645, No Iterations 1001
time step continuity errors : sum local = 1734.782258445581, global = -0.01123801420011045, cumulative = -0.1571777897208454
smoothSolver:  Solving for nuTilda, Initial residual = 0.2592513825803609, Final residual = 0.02499096465566956, No Iterations 6
ExecutionTime = 422.53 s  ClockTime = 424 s

Time = 25

velocityDampingConstraint velocityDamping damped 170845 (0.68%) of cells, with max limit 300
smoothSolver:  Solving for Ux, Initial residual = 0.4246184744810518, Final residual = 0.04134932320775999, No Iterations 2
smoothSolver:  Solving for Uy, Initial residual = 0.4373640059544799, Final residual = 0.009688726132080595, No Iterations 3
smoothSolver:  Solving for Uz, Initial residual = 0.4352866370592784, Final residual = 0.01090539820698854, No Iterations 3
[OGL LOG][Proc: 0]: global_index_init: 0.022 [ms]
[OGL LOG][Proc: 0]p_local_coeffs: call_update: 0 [ms]
[OGL LOG][Proc: 0]p_non_local_coeffs: call_update: 0 [ms]
[OGL LOG][Proc: 0]p: update_local_matrix_data: 89.491 [ms]
[OGL LOG][Proc: 0]p: update_non_local_matrix_data: 0.618 [ms]
[OGL LOG][Proc: 0]p_matrix: call_update: 3.503 [ms]
[OGL LOG][Proc: 0]p_rhs: call_update: 2.289 [ms]
[OGL LOG][Preconditioner.H:271] Generate preconditioner GISAI SparsityPower 1
[OGL LOG][Proc: 0]p: init_precond: 289.635 [ms]
[OGL LOG][StoppingCriterion.H:239] Creating stopping criterion with minIter 600 frequency 11
[OGL LOG][Proc: 0]p: generate_solver: 0.019 [ms]
[OGL LOG][Proc: 0]p: solve: 3792.578 [ms]
[OGL LOG][Proc: 0]p: copy_x_back: 6.243 [ms]
[OGL LOG][lduLduBase.H:330] 
Statistics:
	Time per iteration: 3785 [mu s]
	Time per residual norm calculation: 1431.000000 [mu s]
	Time per iteration and DOF: 0.150028 [ns]
	Retrieve results bandwidth 2.701000 [GByte/s]
[OGL LOG][Proc: 0]p: solve_multi_gpu: 4097.456 [ms]
GISAIcudaGKOCG:  Solving for p, Initial residual = 0.9999999935713507, Final residual = 0.9999999943702979, No Iterations 1002
time step continuity errors : sum local = 854.3077473081067, global = -0.01157014004153457, cumulative = -0.1687479297623799
smoothSolver:  Solving for nuTilda, Initial residual = 0.3014325878808781, Final residual = 0.01066924190770759, No Iterations 2
ExecutionTime = 435.51 s  ClockTime = 437 s

Time = 26

velocityDampingConstraint velocityDamping damped 177046 (0.7000000000000001%) of cells, with max limit 300
smoothSolver:  Solving for Ux, Initial residual = 0.5605699194111902, Final residual = 0.02878137480530312, No Iterations 2
smoothSolver:  Solving for Uy, Initial residual = 0.5600370056288845, Final residual = 0.008123498162884695, No Iterations 3
smoothSolver:  Solving for Uz, Initial residual = 0.5642584412701876, Final residual = 0.01256065622630113, No Iterations 2
[OGL LOG][Proc: 0]: global_index_init: 0.104 [ms]
[OGL LOG][Proc: 0]p_local_coeffs: call_update: 0 [ms]
[OGL LOG][Proc: 0]p_non_local_coeffs: call_update: 0 [ms]
[OGL LOG][Proc: 0]p: update_local_matrix_data: 85.277 [ms]
[OGL LOG][Proc: 0]p: update_non_local_matrix_data: 0.547 [ms]
[OGL LOG][Proc: 0]p_matrix: call_update: 3.253 [ms]
[OGL LOG][Proc: 0]p_rhs: call_update: 2.266 [ms]
[OGL LOG][Preconditioner.H:271] Generate preconditioner GISAI SparsityPower 1
[OGL LOG][Proc: 0]p: init_precond: 283.138 [ms]
[OGL LOG][StoppingCriterion.H:239] Creating stopping criterion with minIter 601 frequency 14
[OGL LOG][Proc: 0]p: generate_solver: 0.015 [ms]
[OGL LOG][Proc: 0]p: solve: 3820.047 [ms]
[OGL LOG][Proc: 0]p: copy_x_back: 6.273 [ms]
[OGL LOG][lduLduBase.H:330] 
Statistics:
	Time per iteration: 3785 [mu s]
	Time per residual norm calculation: 1285.000000 [mu s]
	Time per iteration and DOF: 0.150028 [ns]
	Retrieve results bandwidth 2.688000 [GByte/s]
[OGL LOG][Proc: 0]p: solve_multi_gpu: 4122.447 [ms]
GISAIcudaGKOCG:  Solving for p, Initial residual = 0.9999999919351868, Final residual = 0.999999993006748, No Iterations 1009
time step continuity errors : sum local = 1504.549369860557, global = -0.01190924728591616, cumulative = -0.1806571770482961
smoothSolver:  Solving for nuTilda, Initial residual = 0.2849410980920421, Final residual = 0.02098863693730804, No Iterations 4
ExecutionTime = 448.56 s  ClockTime = 450 s

Time = 27

velocityDampingConstraint velocityDamping damped 176851 (0.7000000000000001%) of cells, with max limit 300
smoothSolver:  Solving for Ux, Initial residual = 0.5528858647698193, Final residual = 0.01734538461570075, No Iterations 3
smoothSolver:  Solving for Uy, Initial residual = 0.5618919595504566, Final residual = 0.05260764203546775, No Iterations 2
smoothSolver:  Solving for Uz, Initial residual = 0.5175491373217258, Final residual = 0.01931886440853387, No Iterations 3
[OGL LOG][Proc: 0]: global_index_init: 0.285 [ms]
[OGL LOG][Proc: 0]p_local_coeffs: call_update: 0 [ms]
[OGL LOG][Proc: 0]p_non_local_coeffs: call_update: 0 [ms]
[OGL LOG][Proc: 0]p: update_local_matrix_data: 89.652 [ms]
[OGL LOG][Proc: 0]p: update_non_local_matrix_data: 0.625 [ms]
[OGL LOG][Proc: 0]p_matrix: call_update: 3.333 [ms]
[OGL LOG][Proc: 0]p_rhs: call_update: 2.239 [ms]
[OGL LOG][Preconditioner.H:271] Generate preconditioner GISAI SparsityPower 1
[OGL LOG][Proc: 0]p: init_precond: 293.509 [ms]
[OGL LOG][StoppingCriterion.H:239] Creating stopping criterion with minIter 605 frequency 14
[OGL LOG][Proc: 0]p: generate_solver: 0.015 [ms]
[OGL LOG][Proc: 0]p: solve: 4098.879 [ms]
[OGL LOG][Proc: 0]p: copy_x_back: 6.245 [ms]
[OGL LOG][lduLduBase.H:330] 
Statistics:
	Time per iteration: 4062 [mu s]
	Time per residual norm calculation: 1285.000000 [mu s]
	Time per iteration and DOF: 0.161008 [ns]
	Retrieve results bandwidth 2.700000 [GByte/s]
[OGL LOG][Proc: 0]p: solve_multi_gpu: 4407.497 [ms]
GISAIcudaGKOCG:  Solving for p, Initial residual = 0.9999999854272364, Final residual = 0.9999999868110696, No Iterations 1009
time step continuity errors : sum local = 971.3732338577676, global = -0.01225633040836558, cumulative = -0.1929135074566617
smoothSolver:  Solving for nuTilda, Initial residual = 0.1269523776484933, Final residual = 0.007300109481748662, No Iterations 5
ExecutionTime = 461.96 s  ClockTime = 463 s

Time = 28

velocityDampingConstraint velocityDamping damped 177696 (0.7000000000000001%) of cells, with max limit 300
smoothSolver:  Solving for Ux, Initial residual = 0.5261032523463942, Final residual = 0.04394031536363337, No Iterations 2
smoothSolver:  Solving for Uy, Initial residual = 0.4801045208596363, Final residual = 0.005738210301776066, No Iterations 3
smoothSolver:  Solving for Uz, Initial residual = 0.5351322914574131, Final residual = 0.01840710135266781, No Iterations 3
[OGL LOG][Proc: 0]: global_index_init: 0.223 [ms]
[OGL LOG][Proc: 0]p_local_coeffs: call_update: 0 [ms]
[OGL LOG][Proc: 0]p_non_local_coeffs: call_update: 0 [ms]
[OGL LOG][Proc: 0]p: update_local_matrix_data: 84.592 [ms]
[OGL LOG][Proc: 0]p: update_non_local_matrix_data: 0.5590000000000001 [ms]
[OGL LOG][Proc: 0]p_matrix: call_update: 3.258 [ms]
[OGL LOG][Proc: 0]p_rhs: call_update: 2.224 [ms]
[OGL LOG][Preconditioner.H:271] Generate preconditioner GISAI SparsityPower 1
[OGL LOG][Proc: 0]p: init_precond: 272.486 [ms]
[OGL LOG][StoppingCriterion.H:239] Creating stopping criterion with minIter 605 frequency 11
[OGL LOG][Proc: 0]p: generate_solver: 0.015 [ms]
[OGL LOG][Proc: 0]p: solve: 3808.702 [ms]
[OGL LOG][Proc: 0]p: copy_x_back: 6.333 [ms]
[OGL LOG][lduLduBase.H:330] 
Statistics:
	Time per iteration: 3801 [mu s]
	Time per residual norm calculation: 994.000000 [mu s]
	Time per iteration and DOF: 0.150663 [ns]
	Retrieve results bandwidth 2.663000 [GByte/s]
[OGL LOG][Proc: 0]p: solve_multi_gpu: 4096.858 [ms]
GISAIcudaGKOCG:  Solving for p, Initial residual = 0.9999999690681729, Final residual = 0.9999999770716931, No Iterations 1002
time step continuity errors : sum local = 431.2547703737529, global = -0.01257243083360229, cumulative = -0.205485938290264
smoothSolver:  Solving for nuTilda, Initial residual = 0.1954073586289677, Final residual = 0.008778859908043054, No Iterations 2
ExecutionTime = 474.86 s  ClockTime = 476 s

Time = 29

velocityDampingConstraint velocityDamping damped 178278 (0.71%) of cells, with max limit 300
smoothSolver:  Solving for Ux, Initial residual = 0.5396501303238506, Final residual = 0.03900252546126918, No Iterations 1
smoothSolver:  Solving for Uy, Initial residual = 0.4917126045427235, Final residual = 0.03635529791938255, No Iterations 1
smoothSolver:  Solving for Uz, Initial residual = 0.537808034913819, Final residual = 0.02746644297608403, No Iterations 2
[OGL LOG][Proc: 0]: global_index_init: 0.057 [ms]
[OGL LOG][Proc: 0]p_local_coeffs: call_update: 0 [ms]
[OGL LOG][Proc: 0]p_non_local_coeffs: call_update: 0 [ms]
[OGL LOG][Proc: 0]p: update_local_matrix_data: 88.85299999999999 [ms]
[OGL LOG][Proc: 0]p: update_non_local_matrix_data: 0.578 [ms]
[OGL LOG][Proc: 0]p_matrix: call_update: 3.439 [ms]
[OGL LOG][Proc: 0]p_rhs: call_update: 2.216 [ms]
[OGL LOG][Preconditioner.H:271] Generate preconditioner GISAI SparsityPower 1
[OGL LOG][Proc: 0]p: init_precond: 282.312 [ms]
[OGL LOG][StoppingCriterion.H:239] Creating stopping criterion with minIter 601 frequency 11
[OGL LOG][Proc: 0]p: generate_solver: 0.017 [ms]
[OGL LOG][Proc: 0]p: solve: 3807.002 [ms]
[OGL LOG][Proc: 0]p: copy_x_back: 6.337 [ms]
[OGL LOG][lduLduBase.H:330] 
Statistics:
	Time per iteration: 3799 [mu s]
	Time per residual norm calculation: 1432.000000 [mu s]
	Time per iteration and DOF: 0.150583 [ns]
	Retrieve results bandwidth 2.661000 [GByte/s]
[OGL LOG][Proc: 0]p: solve_multi_gpu: 4104.183 [ms]
GISAIcudaGKOCG:  Solving for p, Initial residual = 0.9999999727262464, Final residual = 0.999999924117008, No Iterations 1002
time step continuity errors : sum local = 338.0967064386228, global = -0.01278060583325749, cumulative = -0.2182665441235214
smoothSolver:  Solving for nuTilda, Initial residual = 0.1579303567701186, Final residual = 0.008224126378468031, No Iterations 4
ExecutionTime = 487.63 s  ClockTime = 489 s

Time = 30

velocityDampingConstraint velocityDamping damped 178491 (0.71%) of cells, with max limit 300
smoothSolver:  Solving for Ux, Initial residual = 0.5477039893079583, Final residual = 0.01589266436934131, No Iterations 3
smoothSolver:  Solving for Uy, Initial residual = 0.5513640253852388, Final residual = 0.009924800429442666, No Iterations 3
smoothSolver:  Solving for Uz, Initial residual = 0.478812941268648, Final residual = 0.01225808243221557, No Iterations 3
[OGL LOG][Proc: 0]: global_index_init: 0.02 [ms]
[OGL LOG][Proc: 0]p_local_coeffs: call_update: 0 [ms]
[OGL LOG][Proc: 0]p_non_local_coeffs: call_update: 0 [ms]
[OGL LOG][Proc: 0]p: update_local_matrix_data: 83.41 [ms]
[OGL LOG][Proc: 0]p: update_non_local_matrix_data: 0.641 [ms]
[OGL LOG][Proc: 0]p_matrix: call_update: 3.22 [ms]
[OGL LOG][Proc: 0]p_rhs: call_update: 2.294 [ms]
[OGL LOG][Preconditioner.H:271] Generate preconditioner GISAI SparsityPower 1
[OGL LOG][Proc: 0]p: init_precond: 284.616 [ms]
[OGL LOG][StoppingCriterion.H:239] Creating stopping criterion with minIter 601 frequency 14
[OGL LOG][Proc: 0]p: generate_solver: 0.014 [ms]
[OGL LOG][Proc: 0]p: solve: 4148.643 [ms]
[OGL LOG][Proc: 0]p: copy_x_back: 6.43 [ms]
[OGL LOG][lduLduBase.H:330] 
Statistics:
	Time per iteration: 4111 [mu s]
	Time per residual norm calculation: 1282.000000 [mu s]
	Time per iteration and DOF: 0.162950 [ns]
	Retrieve results bandwidth 2.623000 [GByte/s]
[OGL LOG][Proc: 0]p: solve_multi_gpu: 4452.742 [ms]
GISAIcudaGKOCG:  Solving for p, Initial residual = 0.9999999696329824, Final residual = 0.9999999746318704, No Iterations 1009
time step continuity errors : sum local = 332.5713276626462, global = -0.01311957220727089, cumulative = -0.2313861163307923
smoothSolver:  Solving for nuTilda, Initial residual = 0.1292127990746193, Final residual = 0.006656303894356629, No Iterations 3
ExecutionTime = 501.01 s  ClockTime = 502 s

Time = 31

velocityDampingConstraint velocityDamping damped 181983 (0.72%) of cells, with max limit 300
smoothSolver:  Solving for Ux, Initial residual = 0.6065879770536612, Final residual = 0.03600735385832415, No Iterations 1
smoothSolver:  Solving for Uy, Initial residual = 0.5952731022072457, Final residual = 0.05163330070838858, No Iterations 1
smoothSolver:  Solving for Uz, Initial residual = 0.4933775262617835, Final residual = 0.02866939201517701, No Iterations 2
[OGL LOG][Proc: 0]: global_index_init: 0.019 [ms]
[OGL LOG][Proc: 0]p_local_coeffs: call_update: 0 [ms]
[OGL LOG][Proc: 0]p_non_local_coeffs: call_update: 0 [ms]
[OGL LOG][Proc: 0]p: update_local_matrix_data: 89.604 [ms]
[OGL LOG][Proc: 0]p: update_non_local_matrix_data: 0.652 [ms]
[OGL LOG][Proc: 0]p_matrix: call_update: 3.329 [ms]
[OGL LOG][Proc: 0]p_rhs: call_update: 2.132 [ms]
[OGL LOG][Preconditioner.H:271] Generate preconditioner GISAI SparsityPower 1
[OGL LOG][Proc: 0]p: init_precond: 290.575 [ms]
[OGL LOG][StoppingCriterion.H:239] Creating stopping criterion with minIter 605 frequency 11
[OGL LOG][Proc: 0]p: generate_solver: 0.015 [ms]
[OGL LOG][Proc: 0]p: solve: 3795.143 [ms]
[OGL LOG][Proc: 0]p: copy_x_back: 6.216 [ms]
[OGL LOG][lduLduBase.H:330] 
Statistics:
	Time per iteration: 3787 [mu s]
	Time per residual norm calculation: 987.000000 [mu s]
	Time per iteration and DOF: 0.150108 [ns]
	Retrieve results bandwidth 2.713000 [GByte/s]
[OGL LOG][Proc: 0]p: solve_multi_gpu: 4100.509 [ms]
GISAIcudaGKOCG:  Solving for p, Initial residual = 0.9999999610457049, Final residual = 0.9999999642446949, No Iterations 1002
time step continuity errors : sum local = 245.4892586364029, global = -0.01331031915817516, cumulative = -0.2446964354889675
smoothSolver:  Solving for nuTilda, Initial residual = 0.1082085247152515, Final residual = 0.007711539049438997, No Iterations 3
ExecutionTime = 513.72 s  ClockTime = 515 s

Time = 32

velocityDampingConstraint velocityDamping damped 181277 (0.72%) of cells, with max limit 300
smoothSolver:  Solving for Ux, Initial residual = 0.5421254677913077, Final residual = 0.004074231391307788, No Iterations 3
smoothSolver:  Solving for Uy, Initial residual = 0.5632822484620732, Final residual = 0.04424166077167523, No Iterations 2
smoothSolver:  Solving for Uz, Initial residual = 0.5069330024541679, Final residual = 0.01922466604619437, No Iterations 3
[OGL LOG][Proc: 0]: global_index_init: 0.02 [ms]
[OGL LOG][Proc: 0]p_local_coeffs: call_update: 0 [ms]
[OGL LOG][Proc: 0]p_non_local_coeffs: call_update: 0 [ms]
[OGL LOG][Proc: 0]p: update_local_matrix_data: 83.315 [ms]
[OGL LOG][Proc: 0]p: update_non_local_matrix_data: 0.5669999999999999 [ms]
[OGL LOG][Proc: 0]p_matrix: call_update: 3.052 [ms]
[OGL LOG][Proc: 0]p_rhs: call_update: 2.309 [ms]
[OGL LOG][Preconditioner.H:271] Generate preconditioner GISAI SparsityPower 1
[OGL LOG][Proc: 0]p: init_precond: 280.605 [ms]
[OGL LOG][StoppingCriterion.H:239] Creating stopping criterion with minIter 601 frequency 11
[OGL LOG][Proc: 0]p: generate_solver: 0.016 [ms]
[OGL LOG][Proc: 0]p: solve: 3797.595 [ms]
[OGL LOG][Proc: 0]p: copy_x_back: 6.399 [ms]
[OGL LOG][lduLduBase.H:330] 
Statistics:
	Time per iteration: 3790 [mu s]
	Time per residual norm calculation: 1277.000000 [mu s]
	Time per iteration and DOF: 0.150227 [ns]
	Retrieve results bandwidth 2.635000 [GByte/s]
[OGL LOG][Proc: 0]p: solve_multi_gpu: 4095.519 [ms]
GISAIcudaGKOCG:  Solving for p, Initial residual = 0.9999999381735568, Final residual = 0.9999999004894383, No Iterations 1002
time step continuity errors : sum local = 137.5160171563271, global = -0.0136244365718801, cumulative = -0.2583208720608476
smoothSolver:  Solving for nuTilda, Initial residual = 0.09020103481063199, Final residual = 0.005069692732575171, No Iterations 3
ExecutionTime = 526.65 s  ClockTime = 528 s

Time = 33

velocityDampingConstraint velocityDamping damped 186318 (0.74%) of cells, with max limit 300
smoothSolver:  Solving for Ux, Initial residual = 0.6309324996751207, Final residual = 0.06109173611296825, No Iterations 1
smoothSolver:  Solving for Uy, Initial residual = 0.606029503546874, Final residual = 0.02015339291110396, No Iterations 2
smoothSolver:  Solving for Uz, Initial residual = 0.4904943654507153, Final residual = 0.02790188746066425, No Iterations 2
[OGL LOG][Proc: 0]: global_index_init: 0.031 [ms]
[OGL LOG][Proc: 0]p_local_coeffs: call_update: 0 [ms]
[OGL LOG][Proc: 0]p_non_local_coeffs: call_update: 0 [ms]
[OGL LOG][Proc: 0]p: update_local_matrix_data: 85.63200000000001 [ms]
[OGL LOG][Proc: 0]p: update_non_local_matrix_data: 0.539 [ms]
[OGL LOG][Proc: 0]p_matrix: call_update: 2.726 [ms]
[OGL LOG][Proc: 0]p_rhs: call_update: 2.544 [ms]
[OGL LOG][Preconditioner.H:271] Generate preconditioner GISAI SparsityPower 1
[OGL LOG][Proc: 0]p: init_precond: 291.33 [ms]
[OGL LOG][StoppingCriterion.H:239] Creating stopping criterion with minIter 601 frequency 14
[OGL LOG][Proc: 0]p: generate_solver: 0.017 [ms]
[OGL LOG][Proc: 0]p: solve: 3806.336 [ms]
[OGL LOG][Proc: 0]p: copy_x_back: 6.781 [ms]
[OGL LOG][lduLduBase.H:330] 
Statistics:
	Time per iteration: 3772 [mu s]
	Time per residual norm calculation: 985.000000 [mu s]
	Time per iteration and DOF: 0.149513 [ns]
	Retrieve results bandwidth 2.487000 [GByte/s]
[OGL LOG][Proc: 0]p: solve_multi_gpu: 4114.063 [ms]
GISAIcudaGKOCG:  Solving for p, Initial residual = 0.9999998263713478, Final residual = 0.9999998297766456, No Iterations 1009
time step continuity errors : sum local = 114.018596154732, global = -0.01380009373995716, cumulative = -0.2721209658008047
smoothSolver:  Solving for nuTilda, Initial residual = 0.07197519733445333, Final residual = 0.005996830752256425, No Iterations 3
ExecutionTime = 539.51 s  ClockTime = 541 s

Time = 34

velocityDampingConstraint velocityDamping damped 185431 (0.74%) of cells, with max limit 300
smoothSolver:  Solving for Ux, Initial residual = 0.5022688449126197, Final residual = 0.03477096542291206, No Iterations 2
smoothSolver:  Solving for Uy, Initial residual = 0.4828259736744569, Final residual = 0.03219108736607164, No Iterations 2
smoothSolver:  Solving for Uz, Initial residual = 0.4220945941887044, Final residual = 0.01233830479533322, No Iterations 3
[OGL LOG][Proc: 0]: global_index_init: 0.629 [ms]
[OGL LOG][Proc: 0]p_local_coeffs: call_update: 0 [ms]
[OGL LOG][Proc: 0]p_non_local_coeffs: call_update: 0 [ms]
[OGL LOG][Proc: 0]p: update_local_matrix_data: 85.07299999999999 [ms]
[OGL LOG][Proc: 0]p: update_non_local_matrix_data: 0.604 [ms]
[OGL LOG][Proc: 0]p_matrix: call_update: 2.913 [ms]
[OGL LOG][Proc: 0]p_rhs: call_update: 2.674 [ms]
[OGL LOG][Preconditioner.H:271] Generate preconditioner GISAI SparsityPower 1
[OGL LOG][Proc: 0]p: init_precond: 293.446 [ms]
[OGL LOG][StoppingCriterion.H:239] Creating stopping criterion with minIter 605 frequency 11
[OGL LOG][Proc: 0]p: generate_solver: 0.016 [ms]
[OGL LOG][Proc: 0]p: solve: 4121.634 [ms]
[OGL LOG][Proc: 0]p: copy_x_back: 6.564 [ms]
[OGL LOG][lduLduBase.H:330] 
Statistics:
	Time per iteration: 4113 [mu s]
	Time per residual norm calculation: 1282.000000 [mu s]
	Time per iteration and DOF: 0.163030 [ns]
	Retrieve results bandwidth 2.569000 [GByte/s]
[OGL LOG][Proc: 0]p: solve_multi_gpu: 4434.179 [ms]
GISAIcudaGKOCG:  Solving for p, Initial residual = 0.9999998062117659, Final residual = 0.9999997862791116, No Iterations 1002
time step continuity errors : sum local = 101.7656835768425, global = -0.01406079519092639, cumulative = -0.2861817609917311
smoothSolver:  Solving for nuTilda, Initial residual = 0.06467785156685756, Final residual = 0.005665103672605031, No Iterations 3
ExecutionTime = 552.8099999999999 s  ClockTime = 554 s

Time = 35

velocityDampingConstraint velocityDamping damped 190507 (0.76%) of cells, with max limit 300
smoothSolver:  Solving for Ux, Initial residual = 0.5158783648028982, Final residual = 0.01140104178550169, No Iterations 3
smoothSolver:  Solving for Uy, Initial residual = 0.5055768115424482, Final residual = 0.01277556820476917, No Iterations 3
smoothSolver:  Solving for Uz, Initial residual = 0.5003007318623094, Final residual = 0.04176847729357656, No Iterations 2
[OGL LOG][Proc: 0]: global_index_init: 0.189 [ms]
[OGL LOG][Proc: 0]p_local_coeffs: call_update: 0 [ms]
[OGL LOG][Proc: 0]p_non_local_coeffs: call_update: 0 [ms]
[OGL LOG][Proc: 0]p: update_local_matrix_data: 89.63500000000001 [ms]
[OGL LOG][Proc: 0]p: update_non_local_matrix_data: 0.596 [ms]
[OGL LOG][Proc: 0]p_matrix: call_update: 3.374 [ms]
[...]
[OGL LOG][Proc: 0]p: generate_solver: 0.015 [ms]
[OGL LOG][Proc: 0]p: solve: 3798.154 [ms]
[OGL LOG][Proc: 0]p: copy_x_back: 6.15 [ms]
[OGL LOG][lduLduBase.H:330] 
Statistics:
	Time per iteration: 3794 [mu s]
	Time per residual norm calculation: 992.000000 [mu s]
	Time per iteration and DOF: 0.150385 [ns]
	Retrieve results bandwidth 2.742000 [GByte/s]
[OGL LOG][Proc: 0]p: solve_multi_gpu: 4098.103 [ms]
GISAIcudaGKOCG:  Solving for p, Initial residual = 0.9999998970892434, Final residual = 0.9999998970892195, No Iterations 1001
time step continuity errors : sum local = 52340412157801.03, global = 0.3715618884778524, cumulative = -0.7579955124794682
smoothSolver:  Solving for nuTilda, Initial residual = 0.4400294729733787, Final residual = 0.0420001026909813, No Iterations 3
ExecutionTime = 1281.61 s  ClockTime = 1285 s

Time = 91

velocityDampingConstraint velocityDamping damped 464046 (1.84%) of cells, with max limit 300
smoothSolver:  Solving for Ux, Initial residual = 0.5586404087495326, Final residual = 0.01261681636370327, No Iterations 2
smoothSolver:  Solving for Uy, Initial residual = 0.5586515295898964, Final residual = 0.01261679602960949, No Iterations 2
smoothSolver:  Solving for Uz, Initial residual = 0.5586510387623336, Final residual = 0.01261852035191331, No Iterations 2
[OGL LOG][Proc: 0]: global_index_init: 0.022 [ms]
[OGL LOG][Proc: 0]p_local_coeffs: call_update: 0 [ms]
[OGL LOG][Proc: 0]p_non_local_coeffs: call_update: 0 [ms]
[OGL LOG][Proc: 0]p: update_local_matrix_data: 89.432 [ms]
[OGL LOG][Proc: 0]p: update_non_local_matrix_data: 0.589 [ms]
[OGL LOG][Proc: 0]p_matrix: call_update: 3.436 [ms]
[OGL LOG][Proc: 0]p_rhs: call_update: 2.293 [ms]
[OGL LOG][Preconditioner.H:271] Generate preconditioner GISAI SparsityPower 1
[OGL LOG][Proc: 0]p: init_precond: 276.879 [ms]
[OGL LOG][StoppingCriterion.H:239] Creating stopping criterion with minIter 600 frequency 11
[OGL LOG][Proc: 0]p: generate_solver: 0.019 [ms]
[OGL LOG][Proc: 0]p: solve: 3802.086 [ms]
[OGL LOG][Proc: 0]p: copy_x_back: 6.367 [ms]
[OGL LOG][lduLduBase.H:330] 
Statistics:
	Time per iteration: 3794 [mu s]
	Time per residual norm calculation: 1277.000000 [mu s]
	Time per iteration and DOF: 0.150385 [ns]
	Retrieve results bandwidth 2.649000 [GByte/s]
[OGL LOG][Proc: 0]p: solve_multi_gpu: 4094.099 [ms]
GISAIcudaGKOCG:  Solving for p, Initial residual = 0.9999999131736014, Final residual = 0.9999999131761174, No Iterations 1002
time step continuity errors : sum local = 58069036472534.46, global = 0.1906439399339387, cumulative = -0.5673515725455295
smoothSolver:  Solving for nuTilda, Initial residual = 0.2161460276396935, Final residual = 0.0168685745980233, No Iterations 8
ExecutionTime = 1294.59 s  ClockTime = 1298 s

Time = 92

velocityDampingConstraint velocityDamping damped 484766 (1.92%) of cells, with max limit 300
smoothSolver:  Solving for Ux, Initial residual = 0.5471828166809983, Final residual = 0.01313732161244171, No Iterations 4
smoothSolver:  Solving for Uy, Initial residual = 0.5471963579664674, Final residual = 0.01313686988878747, No Iterations 4
smoothSolver:  Solving for Uz, Initial residual = 0.5471802552851859, Final residual = 0.01313836848888226, No Iterations 4
[OGL LOG][Proc: 0]: global_index_init: 0.195 [ms]
[OGL LOG][Proc: 0]p_local_coeffs: call_update: 0 [ms]
[OGL LOG][Proc: 0]p_non_local_coeffs: call_update: 0 [ms]
[OGL LOG][Proc: 0]p: update_local_matrix_data: 75.756 [ms]
[OGL LOG][Proc: 0]p: update_non_local_matrix_data: 0.622 [ms]
[OGL LOG][Proc: 0]p_matrix: call_update: 3.351 [ms]
[OGL LOG][Proc: 0]p_rhs: call_update: 7.721 [ms]
[OGL LOG][Preconditioner.H:271] Generate preconditioner GISAI SparsityPower 1
[OGL LOG][Proc: 0]p: init_precond: 269.637 [ms]
[OGL LOG][StoppingCriterion.H:239] Creating stopping criterion with minIter 601 frequency 14
[OGL LOG][Proc: 0]p: generate_solver: 0.015 [ms]
[OGL LOG][Proc: 0]p: solve: 4179.094 [ms]
[OGL LOG][Proc: 0]p: copy_x_back: 6.457 [ms]
[OGL LOG][lduLduBase.H:330] 
Statistics:
	Time per iteration: 4141 [mu s]
	Time per residual norm calculation: 1288.000000 [mu s]
	Time per iteration and DOF: 0.164139 [ns]
	Retrieve results bandwidth 2.612000 [GByte/s]
[OGL LOG][Proc: 0]p: solve_multi_gpu: 4482.716 [ms]
GISAIcudaGKOCG:  Solving for p, Initial residual = 0.9999999481244106, Final residual = 0.999999948126949, No Iterations 1009
time step continuity errors : sum local = 338109480793117.8, global = 2.708540469917772, cumulative = 2.141188897372242
smoothSolver:  Solving for nuTilda, Initial residual = 0.3906981358472816, Final residual = 0.03561545201110283, No Iterations 4
ExecutionTime = 1308.09 s  ClockTime = 1311 s

Time = 93

velocityDampingConstraint velocityDamping damped 515898 (2.04%) of cells, with max limit 300
smoothSolver:  Solving for Ux, Initial residual = 0.5590861904471761, Final residual = 0.01277921402785308, No Iterations 2
smoothSolver:  Solving for Uy, Initial residual = 0.559093004743897, Final residual = 0.01277789264407728, No Iterations 2
smoothSolver:  Solving for Uz, Initial residual = 0.5590885852780124, Final residual = 0.01277124444905483, No Iterations 2
[OGL LOG][Proc: 0]: global_index_init: 0.476 [ms]
[OGL LOG][Proc: 0]p_local_coeffs: call_update: 0 [ms]
[OGL LOG][Proc: 0]p_non_local_coeffs: call_update: 0 [ms]
[OGL LOG][Proc: 0]p: update_local_matrix_data: 89.268 [ms]
[OGL LOG][Proc: 0]p: update_non_local_matrix_data: 0.604 [ms]
[OGL LOG][Proc: 0]p_matrix: call_update: 2.129 [ms]
[OGL LOG][Proc: 0]p_rhs: call_update: 3.13 [ms]
[OGL LOG][Preconditioner.H:271] Generate preconditioner GISAI SparsityPower 1
[OGL LOG][Proc: 0]p: init_precond: 296.641 [ms]
[OGL LOG][StoppingCriterion.H:239] Creating stopping criterion with minIter 605 frequency 11
[OGL LOG][Proc: 0]p: generate_solver: 0.014 [ms]
[OGL LOG][Proc: 0]p: solve: 3779.302 [ms]
[OGL LOG][Proc: 0]p: copy_x_back: 6.186 [ms]
[OGL LOG][lduLduBase.H:330] 
Statistics:
	Time per iteration: 3771 [mu s]
	Time per residual norm calculation: 987.000000 [mu s]
	Time per iteration and DOF: 0.149474 [ns]
	Retrieve results bandwidth 2.726000 [GByte/s]
[OGL LOG][Proc: 0]p: solve_multi_gpu: 4090.314 [ms]
GISAIcudaGKOCG:  Solving for p, Initial residual = 0.9999999836584735, Final residual = 0.99999998365847, No Iterations 1002
time step continuity errors : sum local = 336889460944972.8, global = 1.059552882589721, cumulative = 3.200741779961964
smoothSolver:  Solving for nuTilda, Initial residual = 0.3709221769287007, Final residual = 0.0370608370058262, No Iterations 6
ExecutionTime = 1320.99 s  ClockTime = 1324 s

Time = 94

velocityDampingConstraint velocityDamping damped 539167 (2.14%) of cells, with max limit 300
smoothSolver:  Solving for Ux, Initial residual = 0.5450344477677127, Final residual = 0.02324251389756157, No Iterations 2
smoothSolver:  Solving for Uy, Initial residual = 0.5450476828814715, Final residual = 0.02323654720019187, No Iterations 2
smoothSolver:  Solving for Uz, Initial residual = 0.5448868571237604, Final residual = 0.0232392974046859, No Iterations 2
[OGL LOG][Proc: 0]: global_index_init: 0.019 [ms]
[OGL LOG][Proc: 0]p_local_coeffs: call_update: 0 [ms]
[OGL LOG][Proc: 0]p_non_local_coeffs: call_update: 0 [ms]
[OGL LOG][Proc: 0]p: update_local_matrix_data: 83.675 [ms]
[OGL LOG][Proc: 0]p: update_non_local_matrix_data: 0.621 [ms]
[OGL LOG][Proc: 0]p_matrix: call_update: 2.296 [ms]
[OGL LOG][Proc: 0]p_rhs: call_update: 4.162 [ms]
[OGL LOG][Preconditioner.H:271] Generate preconditioner GISAI SparsityPower 1
[OGL LOG][Proc: 0]p: init_precond: 302.595 [ms]
[OGL LOG][StoppingCriterion.H:239] Creating stopping criterion with minIter 601 frequency 11
[OGL LOG][Proc: 0]p: generate_solver: 0.014 [ms]
[OGL LOG][Proc: 0]p: solve: 3789.839 [ms]
[OGL LOG][Proc: 0]p: copy_x_back: 6.317 [ms]
[OGL LOG][lduLduBase.H:330] 
Statistics:
	Time per iteration: 3782 [mu s]
	Time per residual norm calculation: 1428.000000 [mu s]
	Time per iteration and DOF: 0.149910 [ns]
	Retrieve results bandwidth 2.670000 [GByte/s]
[OGL LOG][Proc: 0]p: solve_multi_gpu: 4109.52 [ms]
GISAIcudaGKOCG:  Solving for p, Initial residual = 0.9999997579683368, Final residual = 0.9999997579685699, No Iterations 1002
time step continuity errors : sum local = 1382259850442224, global = 6.395785561770626, cumulative = 9.596527341732589
smoothSolver:  Solving for nuTilda, Initial residual = 0.3681582102525986, Final residual = 0.02003169285479206, No Iterations 3
ExecutionTime = 1333.66 s  ClockTime = 1337 s

Time = 95

velocityDampingConstraint velocityDamping damped 562838 (2.23%) of cells, with max limit 300
smoothSolver:  Solving for Ux, Initial residual = 0.5519035683618985, Final residual = 0.01103305938795253, No Iterations 2
smoothSolver:  Solving for Uy, Initial residual = 0.5519004416176811, Final residual = 0.01102088902152246, No Iterations 2
smoothSolver:  Solving for Uz, Initial residual = 0.5519036008071844, Final residual = 0.01101299100135802, No Iterations 2
[OGL LOG][Proc: 0]: global_index_init: 0.023 [ms]
[OGL LOG][Proc: 0]p_local_coeffs: call_update: 0 [ms]
[OGL LOG][Proc: 0]p_non_local_coeffs: call_update: 0 [ms]
[OGL LOG][Proc: 0]p: update_local_matrix_data: 82.86 [ms]
[OGL LOG][Proc: 0]p: update_non_local_matrix_data: 0.609 [ms]
[OGL LOG][Proc: 0]p_matrix: call_update: 3.469 [ms]
[OGL LOG][Proc: 0]p_rhs: call_update: 2.253 [ms]
[OGL LOG][Preconditioner.H:271] Generate preconditioner GISAI SparsityPower 1
[OGL LOG][Proc: 0]p: init_precond: 286.061 [ms]
[OGL LOG][StoppingCriterion.H:239] Creating stopping criterion with minIter 601 frequency 14
[OGL LOG][Proc: 0]p: generate_solver: 0.017 [ms]
[OGL LOG][Proc: 0]p: solve: 3813.711 [ms]
[OGL LOG][Proc: 0]p: copy_x_back: 6.265 [ms]
[OGL LOG][lduLduBase.H:330] 
Statistics:
	Time per iteration: 3779 [mu s]
	Time per residual norm calculation: 1289.000000 [mu s]
	Time per iteration and DOF: 0.149791 [ns]
	Retrieve results bandwidth 2.692000 [GByte/s]
[OGL LOG][Proc: 0]p: solve_multi_gpu: 4116.829 [ms]
GISAIcudaGKOCG:  Solving for p, Initial residual = 0.9999992477700173, Final residual = 0.9999992477733918, No Iterations 1009
time step continuity errors : sum local = 1627342108485755, global = 3.821002284126939, cumulative = 13.41752962585953
smoothSolver:  Solving for nuTilda, Initial residual = 0.2089164607929534, Final residual = 0.01687961551128259, No Iterations 8
ExecutionTime = 1346.67 s  ClockTime = 1350 s

Time = 96

velocityDampingConstraint velocityDamping damped 588480 (2.33%) of cells, with max limit 300
smoothSolver:  Solving for Ux, Initial residual = 0.5425089403129612, Final residual = 0.04448503134476878, No Iterations 2
smoothSolver:  Solving for Uy, Initial residual = 0.5422385558676545, Final residual = 0.04453402122205145, No Iterations 2
smoothSolver:  Solving for Uz, Initial residual = 0.5421531492017296, Final residual = 0.04456359668891633, No Iterations 2
[OGL LOG][Proc: 0]: global_index_init: 0.02 [ms]
[OGL LOG][Proc: 0]p_local_coeffs: call_update: 0 [ms]
[OGL LOG][Proc: 0]p_non_local_coeffs: call_update: 0 [ms]
[OGL LOG][Proc: 0]p: update_local_matrix_data: 83.16200000000001 [ms]
[OGL LOG][Proc: 0]p: update_non_local_matrix_data: 0.5639999999999999 [ms]
[OGL LOG][Proc: 0]p_matrix: call_update: 2.914 [ms]
[OGL LOG][Proc: 0]p_rhs: call_update: 2.459 [ms]
[OGL LOG][Preconditioner.H:271] Generate preconditioner GISAI SparsityPower 1
[OGL LOG][Proc: 0]p: init_precond: 287.4 [ms]
[OGL LOG][StoppingCriterion.H:239] Creating stopping criterion with minIter 605 frequency 14
[OGL LOG][Proc: 0]p: generate_solver: 0.015 [ms]
[OGL LOG][Proc: 0]p: solve: 4086.802 [ms]
[OGL LOG][Proc: 0]p: copy_x_back: 6.304 [ms]
[OGL LOG][lduLduBase.H:330] 
Statistics:
	Time per iteration: 4050 [mu s]
	Time per residual norm calculation: 1285.000000 [mu s]
	Time per iteration and DOF: 0.160532 [ns]
	Retrieve results bandwidth 2.675000 [GByte/s]
[OGL LOG][Proc: 0]p: solve_multi_gpu: 4390.945 [ms]
GISAIcudaGKOCG:  Solving for p, Initial residual = 0.9999970814239064, Final residual = 0.9999970814239237, No Iterations 1009
time step continuity errors : sum local = 3770178026741748, global = 24.56143866555989, cumulative = 37.97896829141942
smoothSolver:  Solving for nuTilda, Initial residual = 0.3010503734816114, Final residual = 0.02186536781767322, No Iterations 5
ExecutionTime = 1359.79 s  ClockTime = 1363 s

Time = 97

velocityDampingConstraint velocityDamping damped 615392 (2.44%) of cells, with max limit 300
smoothSolver:  Solving for Ux, Initial residual = 0.5552438195854745, Final residual = 0.01149605291569566, No Iterations 2
smoothSolver:  Solving for Uy, Initial residual = 0.5552406799911017, Final residual = 0.01149923655325132, No Iterations 2
smoothSolver:  Solving for Uz, Initial residual = 0.5552537057375243, Final residual = 0.0114974303986152, No Iterations 2
[OGL LOG][Proc: 0]: global_index_init: 0.021 [ms]
[OGL LOG][Proc: 0]p_local_coeffs: call_update: 0 [ms]
[OGL LOG][Proc: 0]p_non_local_coeffs: call_update: 0 [ms]
[OGL LOG][Proc: 0]p: update_local_matrix_data: 89.491 [ms]
[OGL LOG][Proc: 0]p: update_non_local_matrix_data: 0.624 [ms]
[OGL LOG][Proc: 0]p_matrix: call_update: 3.409 [ms]
[OGL LOG][Proc: 0]p_rhs: call_update: 2.242 [ms]
[OGL LOG][Preconditioner.H:271] Generate preconditioner GISAI SparsityPower 1
[OGL LOG][Proc: 0]p: init_precond: 305.429 [ms]
[OGL LOG][StoppingCriterion.H:239] Creating stopping criterion with minIter 605 frequency 11
[OGL LOG][Proc: 0]p: generate_solver: 0.015 [ms]
[OGL LOG][Proc: 0]p: solve: 3779.267 [ms]
[OGL LOG][Proc: 0]p: copy_x_back: 6.282 [ms]
[OGL LOG][lduLduBase.H:330] 
Statistics:
	Time per iteration: 3771 [mu s]
	Time per residual norm calculation: 1286.000000 [mu s]
	Time per iteration and DOF: 0.149474 [ns]
	Retrieve results bandwidth 2.684000 [GByte/s]
[OGL LOG][Proc: 0]p: solve_multi_gpu: 4100.016 [ms]
GISAIcudaGKOCG:  Solving for p, Initial residual = 0.9999940131592728, Final residual = 0.999994013159459, No Iterations 1002
time step continuity errors : sum local = 4293205762397356, global = 17.17574136781073, cumulative = 55.15470965923015
smoothSolver:  Solving for nuTilda, Initial residual = 0.2520469011021121, Final residual = 0.02004489913045283, No Iterations 7
ExecutionTime = 1372.81 s  ClockTime = 1376 s

Time = 98

velocityDampingConstraint velocityDamping damped 642602 (2.55%) of cells, with max limit 300
smoothSolver:  Solving for Ux, Initial residual = 0.5381976115998691, Final residual = 0.025444905701465, No Iterations 2
smoothSolver:  Solving for Uy, Initial residual = 0.5382222130672398, Final residual = 0.02546103078160168, No Iterations 2
smoothSolver:  Solving for Uz, Initial residual = 0.5381406802096428, Final residual = 0.02545670764668246, No Iterations 2
[OGL LOG][Proc: 0]: global_index_init: 0.202 [ms]
[OGL LOG][Proc: 0]p_local_coeffs: call_update: 0 [ms]
[OGL LOG][Proc: 0]p_non_local_coeffs: call_update: 0 [ms]
[OGL LOG][Proc: 0]p: update_local_matrix_data: 88.19799999999999 [ms]
[OGL LOG][Proc: 0]p: update_non_local_matrix_data: 0.612 [ms]
[OGL LOG][Proc: 0]p_matrix: call_update: 3.062 [ms]
[OGL LOG][Proc: 0]p_rhs: call_update: 2.313 [ms]
[OGL LOG][Preconditioner.H:271] Generate preconditioner GISAI SparsityPower 1
[OGL LOG][Proc: 0]p: init_precond: 290.139 [ms]
[OGL LOG][StoppingCriterion.H:239] Creating stopping criterion with minIter 601 frequency 14
[OGL LOG][Proc: 0]p: generate_solver: 0.016 [ms]
[OGL LOG][Proc: 0]p: solve: 3818.115 [ms]
[OGL LOG][Proc: 0]p: copy_x_back: 6.261 [ms]
[OGL LOG][lduLduBase.H:330] 
Statistics:
	Time per iteration: 3784 [mu s]
	Time per residual norm calculation: 984.000000 [mu s]
	Time per iteration and DOF: 0.149989 [ns]
	Retrieve results bandwidth 2.693000 [GByte/s]
[OGL LOG][Proc: 0]p: solve_multi_gpu: 4122.752 [ms]
GISAIcudaGKOCG:  Solving for p, Initial residual = 0.9999881256203988, Final residual = 0.9999881256207725, No Iterations 1009
time step continuity errors : sum local = 1.078074355316778e+16, global = 80.87485519734079, cumulative = 136.0295648565709
smoothSolver:  Solving for nuTilda, Initial residual = 0.4602272313160908, Final residual = 0.03181739039463408, No Iterations 3
ExecutionTime = 1385.55 s  ClockTime = 1389 s

Time = 99

velocityDampingConstraint velocityDamping damped 670951 (2.66%) of cells, with max limit 300
smoothSolver:  Solving for Ux, Initial residual = 0.5579698286053261, Final residual = 0.01197337278971587, No Iterations 2
smoothSolver:  Solving for Uy, Initial residual = 0.5579700412269853, Final residual = 0.01197635052273709, No Iterations 2
smoothSolver:  Solving for Uz, Initial residual = 0.557969661568761, Final residual = 0.01195534926797199, No Iterations 2
[OGL LOG][Proc: 0]: global_index_init: 0.024 [ms]
[OGL LOG][Proc: 0]p_local_coeffs: call_update: 0 [ms]
[OGL LOG][Proc: 0]p_non_local_coeffs: call_update: 0 [ms]
[OGL LOG][Proc: 0]p: update_local_matrix_data: 83.001 [ms]
[OGL LOG][Proc: 0]p: update_non_local_matrix_data: 0.574 [ms]
[OGL LOG][Proc: 0]p_matrix: call_update: 3.447 [ms]
[OGL LOG][Proc: 0]p_rhs: call_update: 2.27 [ms]
[OGL LOG][Preconditioner.H:271] Generate preconditioner GISAI SparsityPower 1
[OGL LOG][Proc: 0]p: init_precond: 279.537 [ms]
[OGL LOG][StoppingCriterion.H:239] Creating stopping criterion with minIter 605 frequency 11
[OGL LOG][Proc: 0]p: generate_solver: 0.019 [ms]
[OGL LOG][Proc: 0]p: solve: 4180.315 [ms]
[OGL LOG][Proc: 0]p: copy_x_back: 6.335 [ms]
[OGL LOG][lduLduBase.H:330] 
Statistics:
	Time per iteration: 4171 [mu s]
	Time per residual norm calculation: 987.000000 [mu s]
	Time per iteration and DOF: 0.165329 [ns]
	Retrieve results bandwidth 2.662000 [GByte/s]
[OGL LOG][Proc: 0]p: solve_multi_gpu: 4480.477 [ms]
GISAIcudaGKOCG:  Solving for p, Initial residual = 0.9999888530703979, Final residual = 0.9999888530704804, No Iterations 1002
time step continuity errors : sum local = 1.104642237458615e+16, global = 46.78759522941779, cumulative = 182.8171600859887
smoothSolver:  Solving for nuTilda, Initial residual = 0.2814579964073307, Final residual = 0.02530226597962184, No Iterations 7
ExecutionTime = 1398.85 s  ClockTime = 1402 s

Time = 100

velocityDampingConstraint velocityDamping damped 701348 (2.78%) of cells, with max limit 300
smoothSolver:  Solving for Ux, Initial residual = 0.5452931318671048, Final residual = 0.02506208336116104, No Iterations 2
smoothSolver:  Solving for Uy, Initial residual = 0.5453254927051165, Final residual = 0.02506636832263268, No Iterations 2
smoothSolver:  Solving for Uz, Initial residual = 0.5450193924150061, Final residual = 0.02505090332232809, No Iterations 2
[OGL LOG][Proc: 0]: global_index_init: 0.139 [ms]
[OGL LOG][Proc: 0]p_local_coeffs: call_update: 0 [ms]
[OGL LOG][Proc: 0]p_non_local_coeffs: call_update: 0 [ms]
[OGL LOG][Proc: 0]p: update_local_matrix_data: 85.877 [ms]
[OGL LOG][Proc: 0]p: update_non_local_matrix_data: 0.583 [ms]
[OGL LOG][Proc: 0]p_matrix: call_update: 3.052 [ms]
[OGL LOG][Proc: 0]p_rhs: call_update: 2.469 [ms]
[OGL LOG][Preconditioner.H:271] Generate preconditioner GISAI SparsityPower 1
[OGL LOG][Proc: 0]p: init_precond: 297.294 [ms]
[OGL LOG][StoppingCriterion.H:239] Creating stopping criterion with minIter 601 frequency 10
[OGL LOG][Proc: 0]p: generate_solver: 0.016 [ms]
[OGL LOG][Proc: 0]p: solve: 3781.823 [ms]
[OGL LOG][Proc: 0]p: copy_x_back: 6.282 [ms]
[OGL LOG][lduLduBase.H:330] 
Statistics:
	Time per iteration: 3778 [mu s]
	Time per residual norm calculation: 1423.000000 [mu s]
	Time per iteration and DOF: 0.149751 [ns]
	Retrieve results bandwidth 2.684000 [GByte/s]
[OGL LOG][Proc: 0]p: solve_multi_gpu: 4095.013 [ms]
GISAIcudaGKOCG:  Solving for p, Initial residual = 0.9999985135234856, Final residual = 0.9999985135270312, No Iterations 1001
time step continuity errors : sum local = 4.152598195764952e+16, global = 325.3470915685184, cumulative = 508.1642516545071
smoothSolver:  Solving for nuTilda, Initial residual = 0.3818337670535329, Final residual = 0.03070066089852329, No Iterations 3
ExecutionTime = 1411.69 s  ClockTime = 1415 s

End

Finalising parallel run
