/*---------------------------------------------------------------------------*\
| =========                 |                                                 |
| \\      /  F ield         | OpenFOAM: The Open Source CFD Toolbox           |
|  \\    /   O peration     | Version:  2306                                  |
|   \\  /    A nd           | Website:  www.openfoam.com                      |
|    \\/     M anipulation  |                                                 |
\*---------------------------------------------------------------------------*/
Build  : a6e826bd55-20230630 OPENFOAM=2306 version=v2306
Arch   : "LSB;label=32;scalar=64"
Exec   : icoFoam -parallel -case /tmp/lidDrivenCavity3D/workspace/bc3a7866266aff5fb58db07f1328da9e/case
Date   : Dec 05 2023
Time   : 16:14:36
Host   : nla-gpu2.ianm.kit.edu
PID    : 3922102
I/O    : uncollated
Case   : /tmp/lidDrivenCavity3D/workspace/bc3a7866266aff5fb58db07f1328da9e/case
nProcs : 16
Hosts  :
(
    (nla-gpu2.ianm.kit.edu 16)
)
Pstream initialized with:
    floatTransfer      : false
    nProcsSimpleSum    : 0
    nonBlockingExchange: 0 (tuning: 0)
    exchange algorithm : -1
    commsType          : nonBlocking
    polling iterations : 0
trapFpe: Floating point exception trapping enabled (FOAM_SIGFPE).
fileModificationChecking : Monitoring run-time modified files using timeStampMaster (fileModificationSkew 5, maxFileModificationPolls 20)
allowSystemOperations : Allowing user-supplied system call operations

// * * * * * * * * * * * * * * * * * * * * * * * * * * * * * * * * * * * * * //
Create time

--> FOAM Warning : 
    From void* Foam::dlLibraryTable::openLibrary(const Foam::fileName&, bool)
    in file db/dynamicLibrary/dlLibraryTable/dlLibraryTable.C at line 188
    Could not load "libpetscFoam.so"
libpetscFoam.so: cannot open shared object file: No such file or directory
Create mesh for time = 0


PISO: Operating solver in PISO mode

Reading transportProperties

Reading field p

Reading field U

Reading/calculating face flux field phi


Starting time loop

Time = 0.0005

Courant Number mean: 8.62851e-18 max: 8.67362e-15
momentum setup 8.349 [ms]
DILUPBiCGStab:  Solving for Ux, Initial residual = 1, Final residual = 0.00283431, No Iterations 5
DILUPBiCGStab:  Solving for Uy:  solution singularity
DILUPBiCGStab:  Solving for Uz:  solution singularity
piso setup 6.715 [ms]
 correctNonOrthogonal 
 setRef 
 startSolve 
[OGL LOG][lduLduBase.H:119] Initialising OGL
	OGL commit:  5ef1233
	Branch: feat/on_device_permute 
	Build type: Release
	Ginkgo version: 1.7.0 ( develop)
	Ginkgo commit: sparse-communicator
	MPI is GPU aware: 1
	Forces host buffer based communication: 0
	CPU ranks per GPU: 1
	Matrix format: Coo
	End OGL_INFO
[OGL LOG][Proc: 0]: global_index_init: 24.176 [ms]
[OGL LOG][Proc: 0]p_local_cols: call_init: 0.037 [ms]
[OGL LOG][Proc: 0]p_local_rows: call_init: 0.003 [ms]
[OGL LOG][Proc: 0]p_local_ldu_map: call_init: 0.003 [ms]
[OGL LOG][Proc: 0]p_local_coeffs: call_init: 0.015 [ms]
[OGL LOG][Proc: 0]p_non_local_cols: call_init: 0.004 [ms]
[OGL LOG][Proc: 0]p_non_local_rows: call_init: 0.002 [ms]
[OGL LOG][Proc: 0]p_non_local_ldu_map: call_init: 0.003 [ms]
[OGL LOG][Proc: 0]p_non_local_coeffs: call_init: 0.002 [ms]
[OGL LOG][Proc: 0]p: init_local_sparsity_pattern: 9.859 [ms]
[OGL LOG][Proc: 0]p: init_non_local_sparsity_pattern: 0.963 [ms]
[OGL LOG][Proc: 0]p: update_local_matrix_data: 1.38 [ms]
[OGL LOG][Proc: 0]p: update_non_local_matrix_data: 0.057 [ms]
[OGL LOG][Proc: 0]device_partition: call_init: 0.128 [ms]
[OGL LOG][Proc: 0]p_matrix: call_init: 45.663 [ms]
[OGL LOG][Proc: 0]p_rhs: call_init: 5.317 [ms]
[OGL LOG][Proc: 0]p_solution: call_init: 0.16 [ms]
[OGL LOG][Proc: 0]p: init_precond: 0.081 [ms]
[OGL LOG][StoppingCriterion.H:373] Creating stopping criterion with minIter 0 frequency 1
[OGL LOG][Proc: 0]p: generate_solver: 0.034 [ms]
[OGL LOG][Proc: 0]p: solve: 2138.68 [ms]
[OGL LOG][Proc: 0]p: copy_x_back: 0.268 [ms]
[OGL LOG][lduLduBase.H:330] 
Statistics:
	Time per iteration: 2696 [mu s]
	Time per residual norm calculation: 943.000000 [mu s]
	Time per iteration and DOF: 2.696000 [ns]
	Retrieve results bandwidth 1.865000 [GByte/s]
[OGL LOG][Proc: 0]p: solve_multi_gpu: 2192.89 [ms]
nonehipGKOCG:  Solving for p, Initial residual = 1, Final residual = 9.97126e-05, No Iterations 793
piso step 2475.31 [ms]
 contErrors 
time step continuity errors : sum local = 2.14235e-08, global = 1.55205e-21, cumulative = 1.55205e-21
piso setup 9.625 [ms]
 correctNonOrthogonal 
 setRef 
 startSolve 
[OGL LOG][Proc: 0]: global_index_init: 0.087 [ms]
[OGL LOG][Proc: 0]p_local_coeffs: call_update: 0.004 [ms]
[OGL LOG][Proc: 0]p_non_local_coeffs: call_update: 0 [ms]
[OGL LOG][Proc: 0]p: update_local_matrix_data: 1.165 [ms]
[OGL LOG][Proc: 0]p: update_non_local_matrix_data: 0.026 [ms]
[OGL LOG][Proc: 0]p_matrix: call_update: 2.114 [ms]
[OGL LOG][Proc: 0]p_rhs: call_update: 0.159 [ms]
[OGL LOG][Proc: 0]p: init_precond: 0.049 [ms]
[OGL LOG][StoppingCriterion.H:373] Creating stopping criterion with minIter 475 frequency 12
[OGL LOG][Proc: 0]p: generate_solver: 0.003 [ms]
[OGL LOG][Proc: 0]p: solve: 386.242 [ms]
[OGL LOG][Proc: 0]p: copy_x_back: 0.23 [ms]
[OGL LOG][lduLduBase.H:330] 
Statistics:
	Time per iteration: 487 [mu s]
	Time per residual norm calculation: 118.000000 [mu s]
	Time per iteration and DOF: 0.487000 [ns]
	Retrieve results bandwidth 2.173000 [GByte/s]
[OGL LOG][Proc: 0]p: solve_multi_gpu: 389.045 [ms]
nonehipGKOCG:  Solving for p, Initial residual = 0.731148, Final residual = 6.37153e-05, No Iterations 793
piso step 394.926 [ms]
 contErrors 
time step continuity errors : sum local = 1.80761e-08, global = -2.34748e-21, cumulative = -7.95431e-22
ExecutionTime = 3.21 s  ClockTime = 4 s

Time = 0.001

Courant Number mean: 0.0215183 max: 0.377124
momentum setup 4.275 [ms]
DILUPBiCGStab:  Solving for Ux, Initial residual = 0.150306, Final residual = 0.00127595, No Iterations 5
DILUPBiCGStab:  Solving for Uy, Initial residual = 0.368268, Final residual = 0.00250957, No Iterations 5
DILUPBiCGStab:  Solving for Uz, Initial residual = 0.986415, Final residual = 0.00612797, No Iterations 5
piso setup 6.303 [ms]
 correctNonOrthogonal 
 setRef 
 startSolve 
[OGL LOG][Proc: 0]: global_index_init: 0.047 [ms]
[OGL LOG][Proc: 0]p_local_coeffs: call_update: 0 [ms]
[OGL LOG][Proc: 0]p_non_local_coeffs: call_update: 0 [ms]
[OGL LOG][Proc: 0]p: update_local_matrix_data: 0.746 [ms]
[OGL LOG][Proc: 0]p: update_non_local_matrix_data: 0.021 [ms]
[OGL LOG][Proc: 0]p_matrix: call_update: 2.106 [ms]
[OGL LOG][Proc: 0]p_rhs: call_update: 0.044 [ms]
[OGL LOG][Proc: 0]p: init_precond: 0.04 [ms]
[OGL LOG][StoppingCriterion.H:373] Creating stopping criterion with minIter 475 frequency 8
[OGL LOG][Proc: 0]p: generate_solver: 0.004 [ms]
[OGL LOG][Proc: 0]p: solve: 350.195 [ms]
[OGL LOG][Proc: 0]p: copy_x_back: 0.184 [ms]
[OGL LOG][lduLduBase.H:330] 
Statistics:
	Time per iteration: 450 [mu s]
	Time per residual norm calculation: 118.000000 [mu s]
	Time per iteration and DOF: 0.450000 [ns]
	Retrieve results bandwidth 2.717000 [GByte/s]
[OGL LOG][Proc: 0]p: solve_multi_gpu: 352.973 [ms]
nonehipGKOCG:  Solving for p, Initial residual = 0.691544, Final residual = 9.3502e-05, No Iterations 777
piso step 357.184 [ms]
 contErrors 
time step continuity errors : sum local = 2.97567e-08, global = 2.39546e-21, cumulative = 1.60003e-21
piso setup 6.225 [ms]
 correctNonOrthogonal 
 setRef 
 startSolve 
[OGL LOG][Proc: 0]: global_index_init: 0.045 [ms]
[OGL LOG][Proc: 0]p_local_coeffs: call_update: 0 [ms]
[OGL LOG][Proc: 0]p_non_local_coeffs: call_update: 0 [ms]
[OGL LOG][Proc: 0]p: update_local_matrix_data: 0.656 [ms]
[OGL LOG][Proc: 0]p: update_non_local_matrix_data: 0.02 [ms]
[OGL LOG][Proc: 0]p_matrix: call_update: 1.916 [ms]
[OGL LOG][Proc: 0]p_rhs: call_update: 0.218 [ms]
[OGL LOG][Proc: 0]p: init_precond: 0.041 [ms]
[OGL LOG][StoppingCriterion.H:373] Creating stopping criterion with minIter 466 frequency 10
[OGL LOG][Proc: 0]p: generate_solver: 0.004 [ms]
[OGL LOG][Proc: 0]p: solve: 419.334 [ms]
[OGL LOG][Proc: 0]p: copy_x_back: 0.284 [ms]
[OGL LOG][lduLduBase.H:330] 
Statistics:
	Time per iteration: 536 [mu s]
	Time per residual norm calculation: 121.000000 [mu s]
	Time per iteration and DOF: 0.536000 [ns]
	Retrieve results bandwidth 1.760000 [GByte/s]
[OGL LOG][Proc: 0]p: solve_multi_gpu: 422.03 [ms]
nonehipGKOCG:  Solving for p, Initial residual = 0.620725, Final residual = 6.79174e-05, No Iterations 781
piso step 426.752 [ms]
 contErrors 
time step continuity errors : sum local = 2.2045e-08, global = -6.53641e-22, cumulative = 9.46392e-22
ExecutionTime = 4.06 s  ClockTime = 4 s

Time = 0.0015

Courant Number mean: 0.0324765 max: 0.441237
momentum setup 5.184 [ms]
DILUPBiCGStab:  Solving for Ux, Initial residual = 0.0531252, Final residual = 0.000379608, No Iterations 5
DILUPBiCGStab:  Solving for Uy, Initial residual = 0.124771, Final residual = 0.000649557, No Iterations 5
DILUPBiCGStab:  Solving for Uz, Initial residual = 0.580563, Final residual = 0.00342911, No Iterations 5
piso setup 6.579 [ms]
 correctNonOrthogonal 
 setRef 
 startSolve 
[OGL LOG][Proc: 0]: global_index_init: 0.038 [ms]
[OGL LOG][Proc: 0]p_local_coeffs: call_update: 0 [ms]
[OGL LOG][Proc: 0]p_non_local_coeffs: call_update: 0 [ms]
[OGL LOG][Proc: 0]p: update_local_matrix_data: 1.078 [ms]
[OGL LOG][Proc: 0]p: update_non_local_matrix_data: 0.028 [ms]
[OGL LOG][Proc: 0]p_matrix: call_update: 2.034 [ms]
[OGL LOG][Proc: 0]p_rhs: call_update: 0.073 [ms]
[OGL LOG][Proc: 0]p: init_precond: 0.037 [ms]
[OGL LOG][StoppingCriterion.H:373] Creating stopping criterion with minIter 468 frequency 8
[OGL LOG][Proc: 0]p: generate_solver: 0.004 [ms]
[OGL LOG][Proc: 0]p: solve: 351.019 [ms]
[OGL LOG][Proc: 0]p: copy_x_back: 0.186 [ms]
[OGL LOG][lduLduBase.H:330] 
Statistics:
	Time per iteration: 456 [mu s]
	Time per residual norm calculation: 118.000000 [mu s]
	Time per iteration and DOF: 0.456000 [ns]
	Retrieve results bandwidth 2.688000 [GByte/s]
[OGL LOG][Proc: 0]p: solve_multi_gpu: 353.656 [ms]
nonehipGKOCG:  Solving for p, Initial residual = 0.633189, Final residual = 9.6165e-05, No Iterations 769
piso step 358.256 [ms]
 contErrors 
time step continuity errors : sum local = 2.20663e-08, global = 3.26382e-21, cumulative = 4.21021e-21
piso setup 7.29 [ms]
 correctNonOrthogonal 
 setRef 
 startSolve 
[OGL LOG][Proc: 0]: global_index_init: 0.049 [ms]
[OGL LOG][Proc: 0]p_local_coeffs: call_update: 0 [ms]
[OGL LOG][Proc: 0]p_non_local_coeffs: call_update: 0 [ms]
[OGL LOG][Proc: 0]p: update_local_matrix_data: 0.756 [ms]
[OGL LOG][Proc: 0]p: update_non_local_matrix_data: 0.02 [ms]
[OGL LOG][Proc: 0]p_matrix: call_update: 2.204 [ms]
[OGL LOG][Proc: 0]p_rhs: call_update: 11.578 [ms]
[OGL LOG][Proc: 0]p: init_precond: 0.04 [ms]
[OGL LOG][StoppingCriterion.H:373] Creating stopping criterion with minIter 461 frequency 10
[OGL LOG][Proc: 0]p: generate_solver: 0.005 [ms]
[OGL LOG][Proc: 0]p: solve: 386.204 [ms]
[OGL LOG][Proc: 0]p: copy_x_back: 0.182 [ms]
[OGL LOG][lduLduBase.H:330] 
Statistics:
	Time per iteration: 500 [mu s]
	Time per residual norm calculation: 121.000000 [mu s]
	Time per iteration and DOF: 0.500000 [ns]
	Retrieve results bandwidth 2.747000 [GByte/s]
[OGL LOG][Proc: 0]p: solve_multi_gpu: 400.543 [ms]
nonehipGKOCG:  Solving for p, Initial residual = 0.580506, Final residual = 7.11435e-05, No Iterations 771
piso step 406.182 [ms]
 contErrors 
time step continuity errors : sum local = 1.5892e-08, global = 4.40655e-21, cumulative = 8.61676e-21
ExecutionTime = 4.91 s  ClockTime = 5 s

Time = 0.002

Courant Number mean: 0.0388747 max: 0.452919
momentum setup 4.024 [ms]
DILUPBiCGStab:  Solving for Ux, Initial residual = 0.031912, Final residual = 0.00019761, No Iterations 5
DILUPBiCGStab:  Solving for Uy, Initial residual = 0.081414, Final residual = 0.000429161, No Iterations 5
DILUPBiCGStab:  Solving for Uz, Initial residual = 0.278836, Final residual = 0.00130182, No Iterations 5
piso setup 8.592 [ms]
 correctNonOrthogonal 
 setRef 
 startSolve 
[OGL LOG][Proc: 0]: global_index_init: 0.05 [ms]
[OGL LOG][Proc: 0]p_local_coeffs: call_update: 0 [ms]
[OGL LOG][Proc: 0]p_non_local_coeffs: call_update: 0 [ms]
[OGL LOG][Proc: 0]p: update_local_matrix_data: 0.565 [ms]
[OGL LOG][Proc: 0]p: update_non_local_matrix_data: 0.021 [ms]
[OGL LOG][Proc: 0]p_matrix: call_update: 1.443 [ms]
[OGL LOG][Proc: 0]p_rhs: call_update: 0.406 [ms]
[OGL LOG][Proc: 0]p: init_precond: 0.036 [ms]
[OGL LOG][StoppingCriterion.H:373] Creating stopping criterion with minIter 462 frequency 8
[OGL LOG][Proc: 0]p: generate_solver: 0.004 [ms]
[OGL LOG][Proc: 0]p: solve: 380.534 [ms]
[OGL LOG][Proc: 0]p: copy_x_back: 0.282 [ms]
[OGL LOG][lduLduBase.H:330] 
Statistics:
	Time per iteration: 494 [mu s]
	Time per residual norm calculation: 121.000000 [mu s]
	Time per iteration and DOF: 0.494000 [ns]
	Retrieve results bandwidth 1.773000 [GByte/s]
[OGL LOG][Proc: 0]p: solve_multi_gpu: 383.594 [ms]
nonehipGKOCG:  Solving for p, Initial residual = 0.413254, Final residual = 5.54415e-05, No Iterations 769
piso step 388.251 [ms]
 contErrors 
time step continuity errors : sum local = 1.08572e-08, global = -2.92942e-21, cumulative = 5.68734e-21
piso setup 6.903 [ms]
 correctNonOrthogonal 
 setRef 
 startSolve 
[OGL LOG][Proc: 0]: global_index_init: 0.041 [ms]
[OGL LOG][Proc: 0]p_local_coeffs: call_update: 0 [ms]
[OGL LOG][Proc: 0]p_non_local_coeffs: call_update: 0 [ms]
[OGL LOG][Proc: 0]p: update_local_matrix_data: 1.06 [ms]
[OGL LOG][Proc: 0]p: update_non_local_matrix_data: 0.028 [ms]
[OGL LOG][Proc: 0]p_matrix: call_update: 2.067 [ms]
[OGL LOG][Proc: 0]p_rhs: call_update: 0.057 [ms]
[OGL LOG][Proc: 0]p: init_precond: 0.038 [ms]
[OGL LOG][StoppingCriterion.H:373] Creating stopping criterion with minIter 461 frequency 8
[OGL LOG][Proc: 0]p: generate_solver: 0.005 [ms]
[OGL LOG][Proc: 0]p: solve: 373.779 [ms]
[OGL LOG][Proc: 0]p: copy_x_back: 0.185 [ms]
[OGL LOG][lduLduBase.H:330] 
Statistics:
	Time per iteration: 491 [mu s]
	Time per residual norm calculation: 121.000000 [mu s]
	Time per iteration and DOF: 0.491000 [ns]
	Retrieve results bandwidth 2.702000 [GByte/s]
[OGL LOG][Proc: 0]p: solve_multi_gpu: 376.371 [ms]
nonehipGKOCG:  Solving for p, Initial residual = 0.351347, Final residual = 9.03414e-05, No Iterations 761
piso step 381.074 [ms]
 contErrors 
time step continuity errors : sum local = 1.78678e-08, global = 2.0742e-21, cumulative = 7.76154e-21
ExecutionTime = 5.76 s  ClockTime = 6 s

Time = 0.0025

Courant Number mean: 0.0439264 max: 0.459604
momentum setup 4.031 [ms]
DILUPBiCGStab:  Solving for Ux, Initial residual = 0.0235187, Final residual = 0.000127015, No Iterations 5
DILUPBiCGStab:  Solving for Uy, Initial residual = 0.0515593, Final residual = 0.000259197, No Iterations 5
DILUPBiCGStab:  Solving for Uz, Initial residual = 0.0998531, Final residual = 0.000507595, No Iterations 5
piso setup 6.25 [ms]
 correctNonOrthogonal 
 setRef 
 startSolve 
[OGL LOG][Proc: 0]: global_index_init: 0.04 [ms]
[OGL LOG][Proc: 0]p_local_coeffs: call_update: 0 [ms]
[OGL LOG][Proc: 0]p_non_local_coeffs: call_update: 0 [ms]
[OGL LOG][Proc: 0]p: update_local_matrix_data: 0.599 [ms]
[OGL LOG][Proc: 0]p: update_non_local_matrix_data: 0.02 [ms]
[OGL LOG][Proc: 0]p_matrix: call_update: 1.454 [ms]
[OGL LOG][Proc: 0]p_rhs: call_update: 0.523 [ms]
[OGL LOG][Proc: 0]p: init_precond: 0.038 [ms]
[OGL LOG][StoppingCriterion.H:373] Creating stopping criterion with minIter 456 frequency 8
[OGL LOG][Proc: 0]p: generate_solver: 0.004 [ms]
[OGL LOG][Proc: 0]p: solve: 341.438 [ms]
[OGL LOG][Proc: 0]p: copy_x_back: 0.181 [ms]
[OGL LOG][lduLduBase.H:330] 
Statistics:
	Time per iteration: 468 [mu s]
	Time per residual norm calculation: 119.000000 [mu s]
	Time per iteration and DOF: 0.468000 [ns]
	Retrieve results bandwidth 2.762000 [GByte/s]
[OGL LOG][Proc: 0]p: solve_multi_gpu: 344.466 [ms]
nonehipGKOCG:  Solving for p, Initial residual = 0.31537, Final residual = 9.67329e-05, No Iterations 729
piso step 348.543 [ms]
 contErrors 
time step continuity errors : sum local = 1.56341e-08, global = -6.3545e-21, cumulative = 1.40704e-21
piso setup 7.059 [ms]
 correctNonOrthogonal 
 setRef 
 startSolve 
[OGL LOG][Proc: 0]: global_index_init: 0.033 [ms]
[OGL LOG][Proc: 0]p_local_coeffs: call_update: 0 [ms]
[OGL LOG][Proc: 0]p_non_local_coeffs: call_update: 0 [ms]
[OGL LOG][Proc: 0]p: update_local_matrix_data: 0.789 [ms]
[OGL LOG][Proc: 0]p: update_non_local_matrix_data: 0.02 [ms]
[OGL LOG][Proc: 0]p_matrix: call_update: 2.451 [ms]
[OGL LOG][Proc: 0]p_rhs: call_update: 0.04 [ms]
[OGL LOG][Proc: 0]p: init_precond: 0.037 [ms]
[OGL LOG][StoppingCriterion.H:373] Creating stopping criterion with minIter 437 frequency 9
[OGL LOG][Proc: 0]p: generate_solver: 0.005 [ms]
[OGL LOG][Proc: 0]p: solve: 340.698 [ms]
[OGL LOG][Proc: 0]p: copy_x_back: 0.183 [ms]
[OGL LOG][lduLduBase.H:330] 
Statistics:
	Time per iteration: 466 [mu s]
	Time per residual norm calculation: 117.000000 [mu s]
	Time per iteration and DOF: 0.466000 [ns]
	Retrieve results bandwidth 2.732000 [GByte/s]
[OGL LOG][Proc: 0]p: solve_multi_gpu: 343.63 [ms]
nonehipGKOCG:  Solving for p, Initial residual = 0.269803, Final residual = 8.24346e-05, No Iterations 730
piso step 347.919 [ms]
 contErrors 
time step continuity errors : sum local = 1.32243e-08, global = 2.78416e-21, cumulative = 4.1912e-21
ExecutionTime = 6.53 s  ClockTime = 7 s

Time = 0.003

Courant Number mean: 0.0479663 max: 0.463844
momentum setup 4.24 [ms]
DILUPBiCGStab:  Solving for Ux, Initial residual = 0.0178988, Final residual = 9.39213e-05, No Iterations 5
DILUPBiCGStab:  Solving for Uy, Initial residual = 0.0401561, Final residual = 0.000138748, No Iterations 5
DILUPBiCGStab:  Solving for Uz, Initial residual = 0.0865684, Final residual = 0.000416751, No Iterations 5
piso setup 6.82 [ms]
 correctNonOrthogonal 
 setRef 
 startSolve 
[OGL LOG][Proc: 0]: global_index_init: 0.036 [ms]
[OGL LOG][Proc: 0]p_local_coeffs: call_update: 0 [ms]
[OGL LOG][Proc: 0]p_non_local_coeffs: call_update: 0 [ms]
[OGL LOG][Proc: 0]p: update_local_matrix_data: 0.641 [ms]
[OGL LOG][Proc: 0]p: update_non_local_matrix_data: 0.02 [ms]
[OGL LOG][Proc: 0]p_matrix: call_update: 1.705 [ms]
[OGL LOG][Proc: 0]p_rhs: call_update: 0.514 [ms]
[OGL LOG][Proc: 0]p: init_precond: 0.038 [ms]
[OGL LOG][StoppingCriterion.H:373] Creating stopping criterion with minIter 438 frequency 9
[OGL LOG][Proc: 0]p: generate_solver: 0.004 [ms]
[OGL LOG][Proc: 0]p: solve: 349.45 [ms]
[OGL LOG][Proc: 0]p: copy_x_back: 0.193 [ms]
[OGL LOG][lduLduBase.H:330] 
Statistics:
	Time per iteration: 478 [mu s]
	Time per residual norm calculation: 116.000000 [mu s]
	Time per iteration and DOF: 0.478000 [ns]
	Retrieve results bandwidth 2.590000 [GByte/s]
[OGL LOG][Proc: 0]p: solve_multi_gpu: 352.114 [ms]
nonehipGKOCG:  Solving for p, Initial residual = 0.197163, Final residual = 8.39216e-05, No Iterations 730
piso step 356.304 [ms]
 contErrors 
time step continuity errors : sum local = 1.3092e-08, global = 3.08139e-21, cumulative = 7.27259e-21
piso setup 6.924 [ms]
 correctNonOrthogonal 
 setRef 
 startSolve 
[OGL LOG][Proc: 0]: global_index_init: 0.048 [ms]
[OGL LOG][Proc: 0]p_local_coeffs: call_update: 0 [ms]
[OGL LOG][Proc: 0]p_non_local_coeffs: call_update: 0 [ms]
[OGL LOG][Proc: 0]p: update_local_matrix_data: 0.723 [ms]
[OGL LOG][Proc: 0]p: update_non_local_matrix_data: 0.021 [ms]
[OGL LOG][Proc: 0]p_matrix: call_update: 1.647 [ms]
[OGL LOG][Proc: 0]p_rhs: call_update: 0.512 [ms]
[OGL LOG][Proc: 0]p: init_precond: 0.04 [ms]
[OGL LOG][StoppingCriterion.H:373] Creating stopping criterion with minIter 438 frequency 8
[OGL LOG][Proc: 0]p: generate_solver: 0.004 [ms]
[OGL LOG][Proc: 0]p: solve: 328.262 [ms]
[OGL LOG][Proc: 0]p: copy_x_back: 0.288 [ms]
[OGL LOG][lduLduBase.H:330] 
Statistics:
	Time per iteration: 455 [mu s]
	Time per residual norm calculation: 122.000000 [mu s]
	Time per iteration and DOF: 0.455000 [ns]
	Retrieve results bandwidth 1.736000 [GByte/s]
[OGL LOG][Proc: 0]p: solve_multi_gpu: 331.572 [ms]
nonehipGKOCG:  Solving for p, Initial residual = 0.163931, Final residual = 9.07028e-05, No Iterations 721
piso step 336.827 [ms]
 contErrors 
time step continuity errors : sum local = 1.41626e-08, global = -1.58468e-21, cumulative = 5.68791e-21
ExecutionTime = 7.3 s  ClockTime = 8 s

Time = 0.0035

Courant Number mean: 0.0513755 max: 0.466723
momentum setup 5.428 [ms]
DILUPBiCGStab:  Solving for Ux, Initial residual = 0.0146427, Final residual = 6.72251e-05, No Iterations 5
DILUPBiCGStab:  Solving for Uy, Initial residual = 0.0317843, Final residual = 0.000119681, No Iterations 5
DILUPBiCGStab:  Solving for Uz, Initial residual = 0.0573436, Final residual = 0.000253241, No Iterations 5
piso setup 6.227 [ms]
 correctNonOrthogonal 
 setRef 
 startSolve 
[OGL LOG][Proc: 0]: global_index_init: 0.044 [ms]
[OGL LOG][Proc: 0]p_local_coeffs: call_update: 0 [ms]
[OGL LOG][Proc: 0]p_non_local_coeffs: call_update: 0 [ms]
[OGL LOG][Proc: 0]p: update_local_matrix_data: 1.058 [ms]
[OGL LOG][Proc: 0]p: update_non_local_matrix_data: 0.03 [ms]
[OGL LOG][Proc: 0]p_matrix: call_update: 2.19 [ms]
[OGL LOG][Proc: 0]p_rhs: call_update: 0.066 [ms]
[OGL LOG][Proc: 0]p: init_precond: 0.04 [ms]
[OGL LOG][StoppingCriterion.H:373] Creating stopping criterion with minIter 432 frequency 9
[OGL LOG][Proc: 0]p: generate_solver: 0.004 [ms]
[OGL LOG][Proc: 0]p: solve: 218.959 [ms]
[OGL LOG][Proc: 0]p: copy_x_back: 0.185 [ms]
[OGL LOG][lduLduBase.H:330] 
Statistics:
	Time per iteration: 475 [mu s]
	Time per residual norm calculation: 120.000000 [mu s]
	Time per iteration and DOF: 0.475000 [ns]
	Retrieve results bandwidth 2.702000 [GByte/s]
[OGL LOG][Proc: 0]p: solve_multi_gpu: 221.66 [ms]
nonehipGKOCG:  Solving for p, Initial residual = 0.139404, Final residual = 9.27055e-05, No Iterations 460
piso step 226.205 [ms]
 contErrors 
time step continuity errors : sum local = 1.50185e-08, global = -2.80621e-21, cumulative = 2.8817e-21
piso setup 7.046 [ms]
 correctNonOrthogonal 
 setRef 
 startSolve 
[OGL LOG][Proc: 0]: global_index_init: 0.043 [ms]
[OGL LOG][Proc: 0]p_local_coeffs: call_update: 0 [ms]
[OGL LOG][Proc: 0]p_non_local_coeffs: call_update: 0 [ms]
[OGL LOG][Proc: 0]p: update_local_matrix_data: 0.612 [ms]
[OGL LOG][Proc: 0]p: update_non_local_matrix_data: 0.019 [ms]
[OGL LOG][Proc: 0]p_matrix: call_update: 1.912 [ms]
[OGL LOG][Proc: 0]p_rhs: call_update: 0.498 [ms]
[OGL LOG][Proc: 0]p: init_precond: 0.044 [ms]
[OGL LOG][StoppingCriterion.H:373] Creating stopping criterion with minIter 276 frequency 7
[OGL LOG][Proc: 0]p: generate_solver: 0.003 [ms]
[OGL LOG][Proc: 0]p: solve: 166.646 [ms]
[OGL LOG][Proc: 0]p: copy_x_back: 0.181 [ms]
[OGL LOG][lduLduBase.H:330] 
Statistics:
	Time per iteration: 504 [mu s]
	Time per residual norm calculation: 118.000000 [mu s]
	Time per iteration and DOF: 0.504000 [ns]
	Retrieve results bandwidth 2.762000 [GByte/s]
[OGL LOG][Proc: 0]p: solve_multi_gpu: 170.008 [ms]
nonehipGKOCG:  Solving for p, Initial residual = 0.116527, Final residual = 9.66448e-05, No Iterations 330
piso step 174.126 [ms]
 contErrors 
time step continuity errors : sum local = 1.46876e-08, global = 5.73381e-21, cumulative = 8.61551e-21
ExecutionTime = 7.78 s  ClockTime = 8 s

Time = 0.004

Courant Number mean: 0.0543148 max: 0.468932
momentum setup 4.225 [ms]
DILUPBiCGStab:  Solving for Ux, Initial residual = 0.0122828, Final residual = 5.12852e-05, No Iterations 5
DILUPBiCGStab:  Solving for Uy, Initial residual = 0.0265446, Final residual = 7.80241e-05, No Iterations 5
DILUPBiCGStab:  Solving for Uz, Initial residual = 0.0518564, Final residual = 0.000176794, No Iterations 5
piso setup 6.351 [ms]
 correctNonOrthogonal 
 setRef 
 startSolve 
[OGL LOG][Proc: 0]: global_index_init: 0.086 [ms]
[OGL LOG][Proc: 0]p_local_coeffs: call_update: 0 [ms]
[OGL LOG][Proc: 0]p_non_local_coeffs: call_update: 0 [ms]
[OGL LOG][Proc: 0]p: update_local_matrix_data: 0.627 [ms]
[OGL LOG][Proc: 0]p: update_non_local_matrix_data: 0.225 [ms]
[OGL LOG][Proc: 0]p_matrix: call_update: 1.584 [ms]
[OGL LOG][Proc: 0]p_rhs: call_update: 0.447 [ms]
[OGL LOG][Proc: 0]p: init_precond: 0.039 [ms]
[OGL LOG][StoppingCriterion.H:373] Creating stopping criterion with minIter 198 frequency 5
[OGL LOG][Proc: 0]p: generate_solver: 0.004 [ms]
[OGL LOG][Proc: 0]p: solve: 166.686 [ms]
[OGL LOG][Proc: 0]p: copy_x_back: 0.184 [ms]
[OGL LOG][lduLduBase.H:330] 
Statistics:
	Time per iteration: 511 [mu s]
	Time per residual norm calculation: 122.000000 [mu s]
	Time per iteration and DOF: 0.511000 [ns]
	Retrieve results bandwidth 2.717000 [GByte/s]
[OGL LOG][Proc: 0]p: solve_multi_gpu: 169.667 [ms]
nonehipGKOCG:  Solving for p, Initial residual = 0.0908016, Final residual = 9.22014e-05, No Iterations 326
piso step 173.834 [ms]
 contErrors 
time step continuity errors : sum local = 1.34045e-08, global = -7.63912e-21, cumulative = 9.7639e-22
piso setup 6.532 [ms]
 correctNonOrthogonal 
 setRef 
 startSolve 
[OGL LOG][Proc: 0]: global_index_init: 0.043 [ms]
[OGL LOG][Proc: 0]p_local_coeffs: call_update: 0 [ms]
[OGL LOG][Proc: 0]p_non_local_coeffs: call_update: 0 [ms]
[OGL LOG][Proc: 0]p: update_local_matrix_data: 0.669 [ms]
[OGL LOG][Proc: 0]p: update_non_local_matrix_data: 0.02 [ms]
[OGL LOG][Proc: 0]p_matrix: call_update: 1.671 [ms]
[OGL LOG][Proc: 0]p_rhs: call_update: 0.71 [ms]
[OGL LOG][Proc: 0]p: init_precond: 0.04 [ms]
[OGL LOG][StoppingCriterion.H:373] Creating stopping criterion with minIter 195 frequency 5
[OGL LOG][Proc: 0]p: generate_solver: 0.004 [ms]
[OGL LOG][Proc: 0]p: solve: 146.656 [ms]
[OGL LOG][Proc: 0]p: copy_x_back: 0.18 [ms]
[OGL LOG][lduLduBase.H:330] 
Statistics:
	Time per iteration: 456 [mu s]
	Time per residual norm calculation: 125.000000 [mu s]
	Time per iteration and DOF: 0.456000 [ns]
	Retrieve results bandwidth 2.777000 [GByte/s]
[OGL LOG][Proc: 0]p: solve_multi_gpu: 149.921 [ms]
nonehipGKOCG:  Solving for p, Initial residual = 0.0751033, Final residual = 9.57906e-05, No Iterations 321
piso step 154.097 [ms]
 contErrors 
time step continuity errors : sum local = 1.39378e-08, global = 3.95878e-21, cumulative = 4.93517e-21
ExecutionTime = 8.19 s  ClockTime = 9 s

Time = 0.0045

Courant Number mean: 0.0568923 max: 0.470635
momentum setup 4.142 [ms]
DILUPBiCGStab:  Solving for Ux, Initial residual = 0.0105346, Final residual = 3.97957e-05, No Iterations 5
DILUPBiCGStab:  Solving for Uy, Initial residual = 0.0226905, Final residual = 6.80785e-05, No Iterations 5
DILUPBiCGStab:  Solving for Uz, Initial residual = 0.0434058, Final residual = 0.000129087, No Iterations 5
piso setup 13.308 [ms]
 correctNonOrthogonal 
 setRef 
 startSolve 
[OGL LOG][Proc: 0]: global_index_init: 0.052 [ms]
[OGL LOG][Proc: 0]p_local_coeffs: call_update: 0 [ms]
[OGL LOG][Proc: 0]p_non_local_coeffs: call_update: 0 [ms]
[OGL LOG][Proc: 0]p: update_local_matrix_data: 0.628 [ms]
[OGL LOG][Proc: 0]p: update_non_local_matrix_data: 0.021 [ms]
[OGL LOG][Proc: 0]p_matrix: call_update: 1.812 [ms]
[OGL LOG][Proc: 0]p_rhs: call_update: 0.531 [ms]
[OGL LOG][Proc: 0]p: init_precond: 0.038 [ms]
[OGL LOG][StoppingCriterion.H:373] Creating stopping criterion with minIter 192 frequency 6
[OGL LOG][Proc: 0]p: generate_solver: 0.004 [ms]
[OGL LOG][Proc: 0]p: solve: 154.528 [ms]
[OGL LOG][Proc: 0]p: copy_x_back: 0.181 [ms]
[OGL LOG][lduLduBase.H:330] 
Statistics:
	Time per iteration: 466 [mu s]
	Time per residual norm calculation: 116.000000 [mu s]
	Time per iteration and DOF: 0.466000 [ns]
	Retrieve results bandwidth 2.762000 [GByte/s]
[OGL LOG][Proc: 0]p: solve_multi_gpu: 157.761 [ms]
nonehipGKOCG:  Solving for p, Initial residual = 0.0666512, Final residual = 9.73561e-05, No Iterations 331
piso step 162.013 [ms]
 contErrors 
time step continuity errors : sum local = 1.55958e-08, global = -5.35817e-21, cumulative = -4.22993e-22
piso setup 6.18 [ms]
 correctNonOrthogonal 
 setRef 
 startSolve 
[OGL LOG][Proc: 0]: global_index_init: 0.044 [ms]
[OGL LOG][Proc: 0]p_local_coeffs: call_update: 0 [ms]
[OGL LOG][Proc: 0]p_non_local_coeffs: call_update: 0 [ms]
[OGL LOG][Proc: 0]p: update_local_matrix_data: 0.949 [ms]
[OGL LOG][Proc: 0]p: update_non_local_matrix_data: 0.019 [ms]
[OGL LOG][Proc: 0]p_matrix: call_update: 2.606 [ms]
[OGL LOG][Proc: 0]p_rhs: call_update: 0.049 [ms]
[OGL LOG][Proc: 0]p: init_precond: 0.038 [ms]
[OGL LOG][StoppingCriterion.H:373] Creating stopping criterion with minIter 198 frequency 5
[OGL LOG][Proc: 0]p: generate_solver: 0.005 [ms]
[OGL LOG][Proc: 0]p: solve: 145.33 [ms]
[OGL LOG][Proc: 0]p: copy_x_back: 0.188 [ms]
[OGL LOG][lduLduBase.H:330] 
Statistics:
	Time per iteration: 452 [mu s]
	Time per residual norm calculation: 118.000000 [mu s]
	Time per iteration and DOF: 0.452000 [ns]
	Retrieve results bandwidth 2.659000 [GByte/s]
[OGL LOG][Proc: 0]p: solve_multi_gpu: 148.427 [ms]
nonehipGKOCG:  Solving for p, Initial residual = 0.0555839, Final residual = 8.9663e-05, No Iterations 321
piso step 152.718 [ms]
 contErrors 
time step continuity errors : sum local = 1.34031e-08, global = 3.5819e-21, cumulative = 3.15891e-21
ExecutionTime = 8.59 s  ClockTime = 9 s

Time = 0.005

Courant Number mean: 0.059188 max: 0.47203
momentum setup 4.31 [ms]
DILUPBiCGStab:  Solving for Ux, Initial residual = 0.00921636, Final residual = 3.32177e-05, No Iterations 5
DILUPBiCGStab:  Solving for Uy, Initial residual = 0.0197561, Final residual = 5.13597e-05, No Iterations 5
DILUPBiCGStab:  Solving for Uz, Initial residual = 0.0385873, Final residual = 0.000104505, No Iterations 5
piso setup 6.252 [ms]
 correctNonOrthogonal 
 setRef 
 startSolve 
[OGL LOG][Proc: 0]: global_index_init: 0.04 [ms]
[OGL LOG][Proc: 0]p_local_coeffs: call_update: 0 [ms]
[OGL LOG][Proc: 0]p_non_local_coeffs: call_update: 0 [ms]
[OGL LOG][Proc: 0]p: update_local_matrix_data: 0.635 [ms]
[OGL LOG][Proc: 0]p: update_non_local_matrix_data: 0.021 [ms]
[OGL LOG][Proc: 0]p_matrix: call_update: 1.853 [ms]
[OGL LOG][Proc: 0]p_rhs: call_update: 2.788 [ms]
[OGL LOG][Proc: 0]p: init_precond: 0.038 [ms]
[OGL LOG][StoppingCriterion.H:373] Creating stopping criterion with minIter 192 frequency 6
[OGL LOG][Proc: 0]p: generate_solver: 0.004 [ms]
[OGL LOG][Proc: 0]p: solve: 154.413 [ms]
[OGL LOG][Proc: 0]p: copy_x_back: 0.187 [ms]
[OGL LOG][lduLduBase.H:330] 
Statistics:
	Time per iteration: 475 [mu s]
	Time per residual norm calculation: 120.000000 [mu s]
	Time per iteration and DOF: 0.475000 [ns]
	Retrieve results bandwidth 2.673000 [GByte/s]
[OGL LOG][Proc: 0]p: solve_multi_gpu: 159.494 [ms]
nonehipGKOCG:  Solving for p, Initial residual = 0.0445528, Final residual = 8.87102e-05, No Iterations 325
piso step 163.426 [ms]
 contErrors 
time step continuity errors : sum local = 1.32338e-08, global = 7.99005e-21, cumulative = 1.1149e-20
piso setup 6.228 [ms]
 correctNonOrthogonal 
 setRef 
 startSolve 
[OGL LOG][Proc: 0]: global_index_init: 0.042 [ms]
[OGL LOG][Proc: 0]p_local_coeffs: call_update: 0 [ms]
[OGL LOG][Proc: 0]p_non_local_coeffs: call_update: 0 [ms]
[OGL LOG][Proc: 0]p: update_local_matrix_data: 0.614 [ms]
[OGL LOG][Proc: 0]p: update_non_local_matrix_data: 0.018 [ms]
[OGL LOG][Proc: 0]p_matrix: call_update: 1.773 [ms]
[OGL LOG][Proc: 0]p_rhs: call_update: 0.489 [ms]
[OGL LOG][Proc: 0]p: init_precond: 0.039 [ms]
[OGL LOG][StoppingCriterion.H:373] Creating stopping criterion with minIter 195 frequency 6
[OGL LOG][Proc: 0]p: generate_solver: 0.004 [ms]
[OGL LOG][Proc: 0]p: solve: 145.151 [ms]
[OGL LOG][Proc: 0]p: copy_x_back: 0.186 [ms]
[OGL LOG][lduLduBase.H:330] 
Statistics:
	Time per iteration: 455 [mu s]
	Time per residual norm calculation: 121.000000 [mu s]
	Time per iteration and DOF: 0.455000 [ns]
	Retrieve results bandwidth 2.688000 [GByte/s]
[OGL LOG][Proc: 0]p: solve_multi_gpu: 147.852 [ms]
nonehipGKOCG:  Solving for p, Initial residual = 0.0376045, Final residual = 9.16083e-05, No Iterations 319
piso step 151.941 [ms]
 contErrors 
time step continuity errors : sum local = 1.30365e-08, global = 2.40536e-21, cumulative = 1.35543e-20
ExecutionTime = 8.98 s  ClockTime = 9 s

Time = 0.0055

Courant Number mean: 0.061248 max: 0.473178
momentum setup 4.067 [ms]
DILUPBiCGStab:  Solving for Ux, Initial residual = 0.00814502, Final residual = 2.76008e-05, No Iterations 5
DILUPBiCGStab:  Solving for Uy, Initial residual = 0.0174599, Final residual = 4.57584e-05, No Iterations 5
DILUPBiCGStab:  Solving for Uz, Initial residual = 0.0347007, Final residual = 8.85056e-05, No Iterations 5
piso setup 8.128 [ms]
 correctNonOrthogonal 
 setRef 
 startSolve 
[OGL LOG][Proc: 0]: global_index_init: 0.051 [ms]
[OGL LOG][Proc: 0]p_local_coeffs: call_update: 0 [ms]
[OGL LOG][Proc: 0]p_non_local_coeffs: call_update: 0 [ms]
[OGL LOG][Proc: 0]p: update_local_matrix_data: 0.615 [ms]
[OGL LOG][Proc: 0]p: update_non_local_matrix_data: 0.02 [ms]
[OGL LOG][Proc: 0]p_matrix: call_update: 1.561 [ms]
[OGL LOG][Proc: 0]p_rhs: call_update: 0.518 [ms]
[OGL LOG][Proc: 0]p: init_precond: 0.038 [ms]
[OGL LOG][StoppingCriterion.H:373] Creating stopping criterion with minIter 191 frequency 6
[OGL LOG][Proc: 0]p: generate_solver: 0.004 [ms]
[OGL LOG][Proc: 0]p: solve: 181.074 [ms]
[OGL LOG][Proc: 0]p: copy_x_back: 0.179 [ms]
[OGL LOG][lduLduBase.H:330] 
Statistics:
	Time per iteration: 527 [mu s]
	Time per residual norm calculation: 120.000000 [mu s]
	Time per iteration and DOF: 0.527000 [ns]
	Retrieve results bandwidth 2.793000 [GByte/s]
[OGL LOG][Proc: 0]p: solve_multi_gpu: 183.907 [ms]
nonehipGKOCG:  Solving for p, Initial residual = 0.0349683, Final residual = 9.90507e-05, No Iterations 343
piso step 187.801 [ms]
 contErrors 
time step continuity errors : sum local = 1.63337e-08, global = 7.19192e-21, cumulative = 2.07462e-20
piso setup 7.014 [ms]
 correctNonOrthogonal 
 setRef 
 startSolve 
[OGL LOG][Proc: 0]: global_index_init: 0.035 [ms]
[OGL LOG][Proc: 0]p_local_coeffs: call_update: 0 [ms]
[OGL LOG][Proc: 0]p_non_local_coeffs: call_update: 0 [ms]
[OGL LOG][Proc: 0]p: update_local_matrix_data: 0.568 [ms]
[OGL LOG][Proc: 0]p: update_non_local_matrix_data: 0.022 [ms]
[OGL LOG][Proc: 0]p_matrix: call_update: 1.568 [ms]
[OGL LOG][Proc: 0]p_rhs: call_update: 0.501 [ms]
[OGL LOG][Proc: 0]p: init_precond: 0.039 [ms]
[OGL LOG][StoppingCriterion.H:373] Creating stopping criterion with minIter 205 frequency 5
[OGL LOG][Proc: 0]p: generate_solver: 0.004 [ms]
[OGL LOG][Proc: 0]p: solve: 144.384 [ms]
[OGL LOG][Proc: 0]p: copy_x_back: 0.184 [ms]
[OGL LOG][lduLduBase.H:330] 
Statistics:
	Time per iteration: 456 [mu s]
	Time per residual norm calculation: 124.000000 [mu s]
	Time per iteration and DOF: 0.456000 [ns]
	Retrieve results bandwidth 2.717000 [GByte/s]
[OGL LOG][Proc: 0]p: solve_multi_gpu: 147.217 [ms]
nonehipGKOCG:  Solving for p, Initial residual = 0.0297046, Final residual = 9.99862e-05, No Iterations 316
piso step 151.352 [ms]
 contErrors 
time step continuity errors : sum local = 1.49416e-08, global = 8.55708e-21, cumulative = 2.93033e-20
ExecutionTime = 9.41 s  ClockTime = 10 s

Time = 0.006

Courant Number mean: 0.06312 max: 0.474157
momentum setup 4.223 [ms]
DILUPBiCGStab:  Solving for Ux, Initial residual = 0.0072857, Final residual = 2.4108e-05, No Iterations 5
DILUPBiCGStab:  Solving for Uy, Initial residual = 0.0156066, Final residual = 3.93904e-05, No Iterations 5
DILUPBiCGStab:  Solving for Uz, Initial residual = 0.031322, Final residual = 8.46016e-05, No Iterations 5
piso setup 6.404 [ms]
 correctNonOrthogonal 
 setRef 
 startSolve 
[OGL LOG][Proc: 0]: global_index_init: 0.041 [ms]
[OGL LOG][Proc: 0]p_local_coeffs: call_update: 0 [ms]
[OGL LOG][Proc: 0]p_non_local_coeffs: call_update: 0 [ms]
[OGL LOG][Proc: 0]p: update_local_matrix_data: 0.641 [ms]
[OGL LOG][Proc: 0]p: update_non_local_matrix_data: 0.021 [ms]
[OGL LOG][Proc: 0]p_matrix: call_update: 1.841 [ms]
[OGL LOG][Proc: 0]p_rhs: call_update: 0.197 [ms]
[OGL LOG][Proc: 0]p: init_precond: 0.035 [ms]
[OGL LOG][StoppingCriterion.H:373] Creating stopping criterion with minIter 189 frequency 6
[OGL LOG][Proc: 0]p: generate_solver: 0.004 [ms]
[OGL LOG][Proc: 0]p: solve: 151.748 [ms]
[OGL LOG][Proc: 0]p: copy_x_back: 0.183 [ms]
[OGL LOG][lduLduBase.H:330] 
Statistics:
	Time per iteration: 466 [mu s]
	Time per residual norm calculation: 119.000000 [mu s]
	Time per iteration and DOF: 0.466000 [ns]
	Retrieve results bandwidth 2.732000 [GByte/s]
[OGL LOG][Proc: 0]p: solve_multi_gpu: 154.212 [ms]
nonehipGKOCG:  Solving for p, Initial residual = 0.0251, Final residual = 9.96515e-05, No Iterations 325
piso step 158.086 [ms]
 contErrors 
time step continuity errors : sum local = 1.56976e-08, global = -5.10743e-21, cumulative = 2.41959e-20
piso setup 7.201 [ms]
 correctNonOrthogonal 
 setRef 
 startSolve 
[OGL LOG][Proc: 0]: global_index_init: 0.047 [ms]
[OGL LOG][Proc: 0]p_local_coeffs: call_update: 0 [ms]
[OGL LOG][Proc: 0]p_non_local_coeffs: call_update: 0 [ms]
[OGL LOG][Proc: 0]p: update_local_matrix_data: 0.648 [ms]
[OGL LOG][Proc: 0]p: update_non_local_matrix_data: 0.02 [ms]
[OGL LOG][Proc: 0]p_matrix: call_update: 1.607 [ms]
[OGL LOG][Proc: 0]p_rhs: call_update: 0.453 [ms]
[OGL LOG][Proc: 0]p: init_precond: 0.039 [ms]
[OGL LOG][StoppingCriterion.H:373] Creating stopping criterion with minIter 195 frequency 6
[OGL LOG][Proc: 0]p: generate_solver: 0.004 [ms]
[OGL LOG][Proc: 0]p: solve: 151.775 [ms]
[OGL LOG][Proc: 0]p: copy_x_back: 0.278 [ms]
[OGL LOG][lduLduBase.H:330] 
Statistics:
	Time per iteration: 475 [mu s]
	Time per residual norm calculation: 121.000000 [mu s]
	Time per iteration and DOF: 0.475000 [ns]
	Retrieve results bandwidth 1.798000 [GByte/s]
[OGL LOG][Proc: 0]p: solve_multi_gpu: 154.664 [ms]
nonehipGKOCG:  Solving for p, Initial residual = 0.0219121, Final residual = 8.41957e-05, No Iterations 319
piso step 159.541 [ms]
 contErrors 
time step continuity errors : sum local = 1.21381e-08, global = -1.97801e-21, cumulative = 2.22179e-20
ExecutionTime = 9.81 s  ClockTime = 10 s

Time = 0.0065

Courant Number mean: 0.0648242 max: 0.474993
momentum setup 5.415 [ms]
DILUPBiCGStab:  Solving for Ux, Initial residual = 0.0065697, Final residual = 2.09508e-05, No Iterations 5
DILUPBiCGStab:  Solving for Uy, Initial residual = 0.0140606, Final residual = 3.55769e-05, No Iterations 5
DILUPBiCGStab:  Solving for Uz, Initial residual = 0.0290033, Final residual = 8.06356e-05, No Iterations 5
piso setup 6.192 [ms]
 correctNonOrthogonal 
 setRef 
 startSolve 
[OGL LOG][Proc: 0]: global_index_init: 0.049 [ms]
[OGL LOG][Proc: 0]p_local_coeffs: call_update: 0 [ms]
[OGL LOG][Proc: 0]p_non_local_coeffs: call_update: 0 [ms]
[OGL LOG][Proc: 0]p: update_local_matrix_data: 1.08 [ms]
[OGL LOG][Proc: 0]p: update_non_local_matrix_data: 0.03 [ms]
[OGL LOG][Proc: 0]p_matrix: call_update: 4.577 [ms]
[OGL LOG][Proc: 0]p_rhs: call_update: 0.09 [ms]
[OGL LOG][Proc: 0]p: init_precond: 0.037 [ms]
[OGL LOG][StoppingCriterion.H:373] Creating stopping criterion with minIter 191 frequency 6
[OGL LOG][Proc: 0]p: generate_solver: 0.005 [ms]
[OGL LOG][Proc: 0]p: solve: 321.433 [ms]
[OGL LOG][Proc: 0]p: copy_x_back: 0.184 [ms]
[OGL LOG][lduLduBase.H:330] 
Statistics:
	Time per iteration: 461 [mu s]
	Time per residual norm calculation: 116.000000 [mu s]
	Time per iteration and DOF: 0.461000 [ns]
	Retrieve results bandwidth 2.717000 [GByte/s]
[OGL LOG][Proc: 0]p: solve_multi_gpu: 326.537 [ms]
nonehipGKOCG:  Solving for p, Initial residual = 0.0208802, Final residual = 8.77935e-05, No Iterations 697
piso step 330.931 [ms]
 contErrors 
time step continuity errors : sum local = 1.22913e-08, global = -1.92751e-21, cumulative = 2.02904e-20
piso setup 6.117 [ms]
 correctNonOrthogonal 
 setRef 
 startSolve 
[OGL LOG][Proc: 0]: global_index_init: 0.041 [ms]
[OGL LOG][Proc: 0]p_local_coeffs: call_update: 0 [ms]
[OGL LOG][Proc: 0]p_non_local_coeffs: call_update: 0 [ms]
[OGL LOG][Proc: 0]p: update_local_matrix_data: 0.665 [ms]
[OGL LOG][Proc: 0]p: update_non_local_matrix_data: 0.027 [ms]
[OGL LOG][Proc: 0]p_matrix: call_update: 1.958 [ms]
[OGL LOG][Proc: 0]p_rhs: call_update: 2.261 [ms]
[OGL LOG][Proc: 0]p: init_precond: 0.041 [ms]
[OGL LOG][StoppingCriterion.H:373] Creating stopping criterion with minIter 418 frequency 9
[OGL LOG][Proc: 0]p: generate_solver: 0.004 [ms]
[OGL LOG][Proc: 0]p: solve: 349.715 [ms]
[OGL LOG][Proc: 0]p: copy_x_back: 0.18 [ms]
[OGL LOG][lduLduBase.H:330] 
Statistics:
	Time per iteration: 503 [mu s]
	Time per residual norm calculation: 117.000000 [mu s]
	Time per iteration and DOF: 0.503000 [ns]
	Retrieve results bandwidth 2.777000 [GByte/s]
[OGL LOG][Proc: 0]p: solve_multi_gpu: 354.365 [ms]
nonehipGKOCG:  Solving for p, Initial residual = 0.0184052, Final residual = 8.99583e-05, No Iterations 694
piso step 358.693 [ms]
 contErrors 
time step continuity errors : sum local = 1.25998e-08, global = 4.11427e-21, cumulative = 2.44046e-20
ExecutionTime = 10.57 s  ClockTime = 11 s

Time = 0.007

Courant Number mean: 0.0663921 max: 0.475725
momentum setup 4.319 [ms]
DILUPBiCGStab:  Solving for Ux, Initial residual = 0.0059651, Final residual = 1.87185e-05, No Iterations 5
DILUPBiCGStab:  Solving for Uy, Initial residual = 0.0127664, Final residual = 3.18335e-05, No Iterations 5
DILUPBiCGStab:  Solving for Uz, Initial residual = 0.0258933, Final residual = 5.93115e-05, No Iterations 5
piso setup 6.233 [ms]
 correctNonOrthogonal 
 setRef 
 startSolve 
[OGL LOG][Proc: 0]: global_index_init: 0.041 [ms]
[OGL LOG][Proc: 0]p_local_coeffs: call_update: 0 [ms]
[OGL LOG][Proc: 0]p_non_local_coeffs: call_update: 0 [ms]
[OGL LOG][Proc: 0]p: update_local_matrix_data: 0.593 [ms]
[OGL LOG][Proc: 0]p: update_non_local_matrix_data: 0.021 [ms]
[OGL LOG][Proc: 0]p_matrix: call_update: 1.402 [ms]
[OGL LOG][Proc: 0]p_rhs: call_update: 0.583 [ms]
[OGL LOG][Proc: 0]p: init_precond: 0.037 [ms]
[OGL LOG][StoppingCriterion.H:373] Creating stopping criterion with minIter 416 frequency 8
[OGL LOG][Proc: 0]p: generate_solver: 0.004 [ms]
[OGL LOG][Proc: 0]p: solve: 337.629 [ms]
[OGL LOG][Proc: 0]p: copy_x_back: 0.183 [ms]
[OGL LOG][lduLduBase.H:330] 
Statistics:
	Time per iteration: 484 [mu s]
	Time per residual norm calculation: 119.000000 [mu s]
	Time per iteration and DOF: 0.484000 [ns]
	Retrieve results bandwidth 2.732000 [GByte/s]
[OGL LOG][Proc: 0]p: solve_multi_gpu: 340.764 [ms]
nonehipGKOCG:  Solving for p, Initial residual = 0.016304, Final residual = 7.61613e-05, No Iterations 697
piso step 344.57 [ms]
 contErrors 
time step continuity errors : sum local = 1.06553e-08, global = 4.51952e-21, cumulative = 2.89242e-20
piso setup 6.594 [ms]
 correctNonOrthogonal 
 setRef 
 startSolve 
[OGL LOG][Proc: 0]: global_index_init: 0.04 [ms]
[OGL LOG][Proc: 0]p_local_coeffs: call_update: 0 [ms]
[OGL LOG][Proc: 0]p_non_local_coeffs: call_update: 0 [ms]
[OGL LOG][Proc: 0]p: update_local_matrix_data: 0.841 [ms]
[OGL LOG][Proc: 0]p: update_non_local_matrix_data: 0.021 [ms]
[OGL LOG][Proc: 0]p_matrix: call_update: 1.528 [ms]
[OGL LOG][Proc: 0]p_rhs: call_update: 0.53 [ms]
[OGL LOG][Proc: 0]p: init_precond: 0.24 [ms]
[OGL LOG][StoppingCriterion.H:373] Creating stopping criterion with minIter 418 frequency 8
[OGL LOG][Proc: 0]p: generate_solver: 0.005 [ms]
[OGL LOG][Proc: 0]p: solve: 189.959 [ms]
[OGL LOG][Proc: 0]p: copy_x_back: 0.186 [ms]
[OGL LOG][lduLduBase.H:330] 
Statistics:
	Time per iteration: 446 [mu s]
	Time per residual norm calculation: 121.000000 [mu s]
	Time per iteration and DOF: 0.446000 [ns]
	Retrieve results bandwidth 2.688000 [GByte/s]
[OGL LOG][Proc: 0]p: solve_multi_gpu: 193.144 [ms]
nonehipGKOCG:  Solving for p, Initial residual = 0.0147682, Final residual = 9.1483e-05, No Iterations 425
piso step 197.816 [ms]
 contErrors 
time step continuity errors : sum local = 1.34981e-08, global = -6.91725e-21, cumulative = 2.20069e-20
ExecutionTime = 11.19 s  ClockTime = 12 s

Time = 0.0075

Courant Number mean: 0.0678393 max: 0.476365
momentum setup 6.244 [ms]
DILUPBiCGStab:  Solving for Ux, Initial residual = 0.00544227, Final residual = 1.66694e-05, No Iterations 5
DILUPBiCGStab:  Solving for Uy, Initial residual = 0.011667, Final residual = 2.89047e-05, No Iterations 5
DILUPBiCGStab:  Solving for Uz, Initial residual = 0.02384, Final residual = 5.67658e-05, No Iterations 5
piso setup 6.223 [ms]
 correctNonOrthogonal 
 setRef 
 startSolve 
[OGL LOG][Proc: 0]: global_index_init: 0.046 [ms]
[OGL LOG][Proc: 0]p_local_coeffs: call_update: 0 [ms]
[OGL LOG][Proc: 0]p_non_local_coeffs: call_update: 0 [ms]
[OGL LOG][Proc: 0]p: update_local_matrix_data: 0.77 [ms]
[OGL LOG][Proc: 0]p: update_non_local_matrix_data: 0.018 [ms]
[OGL LOG][Proc: 0]p_matrix: call_update: 2.408 [ms]
[OGL LOG][Proc: 0]p_rhs: call_update: 0.142 [ms]
[OGL LOG][Proc: 0]p: init_precond: 0.037 [ms]
[OGL LOG][StoppingCriterion.H:373] Creating stopping criterion with minIter 255 frequency 7
[OGL LOG][Proc: 0]p: generate_solver: 0.004 [ms]
[OGL LOG][Proc: 0]p: solve: 317.82 [ms]
[OGL LOG][Proc: 0]p: copy_x_back: 0.19 [ms]
[OGL LOG][lduLduBase.H:330] 
Statistics:
	Time per iteration: 457 [mu s]
	Time per residual norm calculation: 117.000000 [mu s]
	Time per iteration and DOF: 0.457000 [ns]
	Retrieve results bandwidth 2.631000 [GByte/s]
[OGL LOG][Proc: 0]p: solve_multi_gpu: 320.825 [ms]
nonehipGKOCG:  Solving for p, Initial residual = 0.0139796, Final residual = 7.82249e-05, No Iterations 694
piso step 324.847 [ms]
 contErrors 
time step continuity errors : sum local = 1.09311e-08, global = 3.43653e-21, cumulative = 2.54435e-20
piso setup 5.853 [ms]
 correctNonOrthogonal 
 setRef 
 startSolve 
[OGL LOG][Proc: 0]: global_index_init: 0.03 [ms]
[OGL LOG][Proc: 0]p_local_coeffs: call_update: 0 [ms]
[OGL LOG][Proc: 0]p_non_local_coeffs: call_update: 0 [ms]
[OGL LOG][Proc: 0]p: update_local_matrix_data: 0.587 [ms]
[OGL LOG][Proc: 0]p: update_non_local_matrix_data: 0.023 [ms]
[OGL LOG][Proc: 0]p_matrix: call_update: 1.837 [ms]
[OGL LOG][Proc: 0]p_rhs: call_update: 0.136 [ms]
[OGL LOG][Proc: 0]p: init_precond: 0.038 [ms]
[OGL LOG][StoppingCriterion.H:373] Creating stopping criterion with minIter 416 frequency 9
[OGL LOG][Proc: 0]p: generate_solver: 0.004 [ms]
[OGL LOG][Proc: 0]p: solve: 327.982 [ms]
[OGL LOG][Proc: 0]p: copy_x_back: 0.188 [ms]
[OGL LOG][lduLduBase.H:330] 
Statistics:
	Time per iteration: 472 [mu s]
	Time per residual norm calculation: 116.000000 [mu s]
	Time per iteration and DOF: 0.472000 [ns]
	Retrieve results bandwidth 2.659000 [GByte/s]
[OGL LOG][Proc: 0]p: solve_multi_gpu: 330.553 [ms]
nonehipGKOCG:  Solving for p, Initial residual = 0.0127429, Final residual = 6.94131e-05, No Iterations 694
piso step 334.412 [ms]
 contErrors 
time step continuity errors : sum local = 9.70318e-09, global = 6.61499e-22, cumulative = 2.6105e-20
ExecutionTime = 11.93 s  ClockTime = 12 s

Time = 0.008

Courant Number mean: 0.0691766 max: 0.476935
momentum setup 4.098 [ms]
DILUPBiCGStab:  Solving for Ux, Initial residual = 0.00499536, Final residual = 1.50955e-05, No Iterations 5
DILUPBiCGStab:  Solving for Uy, Initial residual = 0.0107171, Final residual = 2.64016e-05, No Iterations 5
DILUPBiCGStab:  Solving for Uz, Initial residual = 0.0218141, Final residual = 4.76734e-05, No Iterations 5
piso setup 6.212 [ms]
 correctNonOrthogonal 
 setRef 
 startSolve 
[OGL LOG][Proc: 0]: global_index_init: 0.04 [ms]
[OGL LOG][Proc: 0]p_local_coeffs: call_update: 0 [ms]
[OGL LOG][Proc: 0]p_non_local_coeffs: call_update: 0 [ms]
[OGL LOG][Proc: 0]p: update_local_matrix_data: 0.591 [ms]
[OGL LOG][Proc: 0]p: update_non_local_matrix_data: 0.019 [ms]
[OGL LOG][Proc: 0]p_matrix: call_update: 1.567 [ms]
[OGL LOG][Proc: 0]p_rhs: call_update: 0.635 [ms]
[OGL LOG][Proc: 0]p: init_precond: 0.036 [ms]
[OGL LOG][StoppingCriterion.H:373] Creating stopping criterion with minIter 416 frequency 8
[OGL LOG][Proc: 0]p: generate_solver: 0.004 [ms]
[OGL LOG][Proc: 0]p: solve: 186.306 [ms]
[OGL LOG][Proc: 0]p: copy_x_back: 0.184 [ms]
[OGL LOG][lduLduBase.H:330] 
Statistics:
	Time per iteration: 446 [mu s]
	Time per residual norm calculation: 121.000000 [mu s]
	Time per iteration and DOF: 0.446000 [ns]
	Retrieve results bandwidth 2.717000 [GByte/s]
[OGL LOG][Proc: 0]p: solve_multi_gpu: 189.529 [ms]
nonehipGKOCG:  Solving for p, Initial residual = 0.0119976, Final residual = 4.75559e-05, No Iterations 417
piso step 193.337 [ms]
 contErrors 
time step continuity errors : sum local = 7.07438e-09, global = -1.03231e-20, cumulative = 1.57818e-20
piso setup 6.21 [ms]
 correctNonOrthogonal 
 setRef 
 startSolve 
[OGL LOG][Proc: 0]: global_index_init: 0.041 [ms]
[OGL LOG][Proc: 0]p_local_coeffs: call_update: 0 [ms]
[OGL LOG][Proc: 0]p_non_local_coeffs: call_update: 0 [ms]
[OGL LOG][Proc: 0]p: update_local_matrix_data: 0.574 [ms]
[OGL LOG][Proc: 0]p: update_non_local_matrix_data: 0.027 [ms]
[OGL LOG][Proc: 0]p_matrix: call_update: 1.813 [ms]
[OGL LOG][Proc: 0]p_rhs: call_update: 2.393 [ms]
[OGL LOG][Proc: 0]p: init_precond: 0.039 [ms]
[OGL LOG][StoppingCriterion.H:373] Creating stopping criterion with minIter 250 frequency 7
[OGL LOG][Proc: 0]p: generate_solver: 0.004 [ms]
[OGL LOG][Proc: 0]p: solve: 133.241 [ms]
[OGL LOG][Proc: 0]p: copy_x_back: 0.183 [ms]
[OGL LOG][lduLduBase.H:330] 
Statistics:
	Time per iteration: 451 [mu s]
	Time per residual norm calculation: 180.000000 [mu s]
	Time per iteration and DOF: 0.451000 [ns]
	Retrieve results bandwidth 2.732000 [GByte/s]
[OGL LOG][Proc: 0]p: solve_multi_gpu: 138.057 [ms]
nonehipGKOCG:  Solving for p, Initial residual = 0.011136, Final residual = 9.62438e-05, No Iterations 295
piso step 141.962 [ms]
 contErrors 
time step continuity errors : sum local = 1.36672e-08, global = -1.32456e-21, cumulative = 1.44573e-20
ExecutionTime = 12.34 s  ClockTime = 13 s

Time = 0.0085

Courant Number mean: 0.0704222 max: 0.477443
momentum setup 4.181 [ms]
DILUPBiCGStab:  Solving for Ux, Initial residual = 0.00460077, Final residual = 1.36626e-05, No Iterations 5
DILUPBiCGStab:  Solving for Uy, Initial residual = 0.0098944, Final residual = 2.42709e-05, No Iterations 5
DILUPBiCGStab:  Solving for Uz, Initial residual = 0.0201521, Final residual = 4.4284e-05, No Iterations 5
piso setup 6.432 [ms]
 correctNonOrthogonal 
 setRef 
 startSolve 
[OGL LOG][Proc: 0]: global_index_init: 0.035 [ms]
[OGL LOG][Proc: 0]p_local_coeffs: call_update: 0 [ms]
[OGL LOG][Proc: 0]p_non_local_coeffs: call_update: 0 [ms]
[OGL LOG][Proc: 0]p: update_local_matrix_data: 0.61 [ms]
[OGL LOG][Proc: 0]p: update_non_local_matrix_data: 0.02 [ms]
[OGL LOG][Proc: 0]p_matrix: call_update: 1.813 [ms]
[OGL LOG][Proc: 0]p_rhs: call_update: 0.15 [ms]
[OGL LOG][Proc: 0]p: init_precond: 0.037 [ms]
[OGL LOG][StoppingCriterion.H:373] Creating stopping criterion with minIter 177 frequency 7
[OGL LOG][Proc: 0]p: generate_solver: 0.005 [ms]
[OGL LOG][Proc: 0]p: solve: 150.989 [ms]
[OGL LOG][Proc: 0]p: copy_x_back: 0.182 [ms]
[OGL LOG][lduLduBase.H:330] 
Statistics:
	Time per iteration: 511 [mu s]
	Time per residual norm calculation: 120.000000 [mu s]
	Time per iteration and DOF: 0.511000 [ns]
	Retrieve results bandwidth 2.747000 [GByte/s]
[OGL LOG][Proc: 0]p: solve_multi_gpu: 153.39 [ms]
nonehipGKOCG:  Solving for p, Initial residual = 0.0105324, Final residual = 9.22731e-05, No Iterations 295
piso step 157.348 [ms]
 contErrors 
time step continuity errors : sum local = 1.36143e-08, global = 3.40643e-22, cumulative = 1.47979e-20
piso setup 6.456 [ms]
 correctNonOrthogonal 
 setRef 
 startSolve 
[OGL LOG][Proc: 0]: global_index_init: 0.033 [ms]
[OGL LOG][Proc: 0]p_local_coeffs: call_update: 0 [ms]
[OGL LOG][Proc: 0]p_non_local_coeffs: call_update: 0 [ms]
[OGL LOG][Proc: 0]p: update_local_matrix_data: 0.59 [ms]
[OGL LOG][Proc: 0]p: update_non_local_matrix_data: 0.022 [ms]
[OGL LOG][Proc: 0]p_matrix: call_update: 1.972 [ms]
[OGL LOG][Proc: 0]p_rhs: call_update: 0.48 [ms]
[OGL LOG][Proc: 0]p: init_precond: 0.04 [ms]
[OGL LOG][StoppingCriterion.H:373] Creating stopping criterion with minIter 177 frequency 5
[OGL LOG][Proc: 0]p: generate_solver: 0.004 [ms]
[OGL LOG][Proc: 0]p: solve: 132.549 [ms]
[OGL LOG][Proc: 0]p: copy_x_back: 0.182 [ms]
[OGL LOG][lduLduBase.H:330] 
Statistics:
	Time per iteration: 455 [mu s]
	Time per residual norm calculation: 125.000000 [mu s]
	Time per iteration and DOF: 0.455000 [ns]
	Retrieve results bandwidth 2.747000 [GByte/s]
[OGL LOG][Proc: 0]p: solve_multi_gpu: 135.761 [ms]
nonehipGKOCG:  Solving for p, Initial residual = 0.00984342, Final residual = 9.13124e-05, No Iterations 291
piso step 139.778 [ms]
 contErrors 
time step continuity errors : sum local = 1.29059e-08, global = -2.30517e-21, cumulative = 1.24927e-20
ExecutionTime = 12.71 s  ClockTime = 13 s

Time = 0.009

Courant Number mean: 0.0715856 max: 0.477901
momentum setup 4.273 [ms]
DILUPBiCGStab:  Solving for Ux, Initial residual = 0.00425643, Final residual = 1.24977e-05, No Iterations 5
DILUPBiCGStab:  Solving for Uy, Initial residual = 0.00917266, Final residual = 2.24498e-05, No Iterations 5
DILUPBiCGStab:  Solving for Uz, Initial residual = 0.0187087, Final residual = 4.27783e-05, No Iterations 5
piso setup 6.255 [ms]
 correctNonOrthogonal 
 setRef 
 startSolve 
[OGL LOG][Proc: 0]: global_index_init: 0.049 [ms]
[OGL LOG][Proc: 0]p_local_coeffs: call_update: 0 [ms]
[OGL LOG][Proc: 0]p_non_local_coeffs: call_update: 0 [ms]
[OGL LOG][Proc: 0]p: update_local_matrix_data: 0.609 [ms]
[OGL LOG][Proc: 0]p: update_non_local_matrix_data: 0.021 [ms]
[OGL LOG][Proc: 0]p_matrix: call_update: 2.116 [ms]
[OGL LOG][Proc: 0]p_rhs: call_update: 0.197 [ms]
[OGL LOG][Proc: 0]p: init_precond: 0.037 [ms]
[OGL LOG][StoppingCriterion.H:373] Creating stopping criterion with minIter 174 frequency 6
[OGL LOG][Proc: 0]p: generate_solver: 0.004 [ms]
[OGL LOG][Proc: 0]p: solve: 137.745 [ms]
[OGL LOG][Proc: 0]p: copy_x_back: 0.183 [ms]
[OGL LOG][lduLduBase.H:330] 
Statistics:
	Time per iteration: 476 [mu s]
	Time per residual norm calculation: 118.000000 [mu s]
	Time per iteration and DOF: 0.476000 [ns]
	Retrieve results bandwidth 2.732000 [GByte/s]
[OGL LOG][Proc: 0]p: solve_multi_gpu: 140.486 [ms]
nonehipGKOCG:  Solving for p, Initial residual = 0.00954581, Final residual = 9.94621e-05, No Iterations 289
piso step 144.547 [ms]
 contErrors 
time step continuity errors : sum local = 1.4674e-08, global = -1.00988e-21, cumulative = 1.14828e-20
piso setup 7.369 [ms]
 correctNonOrthogonal 
 setRef 
 startSolve 
[OGL LOG][Proc: 0]: global_index_init: 0.057 [ms]
[OGL LOG][Proc: 0]p_local_coeffs: call_update: 0 [ms]
[OGL LOG][Proc: 0]p_non_local_coeffs: call_update: 0 [ms]
[OGL LOG][Proc: 0]p: update_local_matrix_data: 0.644 [ms]
[OGL LOG][Proc: 0]p: update_non_local_matrix_data: 0.02 [ms]
[OGL LOG][Proc: 0]p_matrix: call_update: 1.989 [ms]
[OGL LOG][Proc: 0]p_rhs: call_update: 0.491 [ms]
[OGL LOG][Proc: 0]p: init_precond: 0.045 [ms]
[OGL LOG][StoppingCriterion.H:373] Creating stopping criterion with minIter 173 frequency 5
[OGL LOG][Proc: 0]p: generate_solver: 0.004 [ms]
[OGL LOG][Proc: 0]p: solve: 149.388 [ms]
[OGL LOG][Proc: 0]p: copy_x_back: 0.284 [ms]
[OGL LOG][lduLduBase.H:330] 
Statistics:
	Time per iteration: 522 [mu s]
	Time per residual norm calculation: 119.000000 [mu s]
	Time per iteration and DOF: 0.522000 [ns]
	Retrieve results bandwidth 1.760000 [GByte/s]
[OGL LOG][Proc: 0]p: solve_multi_gpu: 152.421 [ms]
nonehipGKOCG:  Solving for p, Initial residual = 0.00899552, Final residual = 9.43471e-05, No Iterations 286
piso step 157.338 [ms]
 contErrors 
time step continuity errors : sum local = 1.34794e-08, global = -2.10298e-21, cumulative = 9.37987e-21
ExecutionTime = 13.09 s  ClockTime = 14 s

Time = 0.0095

Courant Number mean: 0.0726727 max: 0.478315
momentum setup 5.041 [ms]
DILUPBiCGStab:  Solving for Ux, Initial residual = 0.00395368, Final residual = 1.14462e-05, No Iterations 5
DILUPBiCGStab:  Solving for Uy, Initial residual = 0.00852321, Final residual = 2.0873e-05, No Iterations 5
DILUPBiCGStab:  Solving for Uz, Initial residual = 0.0176658, Final residual = 4.12996e-05, No Iterations 5
piso setup 6.255 [ms]
 correctNonOrthogonal 
 setRef 
 startSolve 
[OGL LOG][Proc: 0]: global_index_init: 0.054 [ms]
[OGL LOG][Proc: 0]p_local_coeffs: call_update: 0 [ms]
[OGL LOG][Proc: 0]p_non_local_coeffs: call_update: 0 [ms]
[OGL LOG][Proc: 0]p: update_local_matrix_data: 1.083 [ms]
[OGL LOG][Proc: 0]p: update_non_local_matrix_data: 0.031 [ms]
[OGL LOG][Proc: 0]p_matrix: call_update: 2.167 [ms]
[OGL LOG][Proc: 0]p_rhs: call_update: 0.131 [ms]
[OGL LOG][Proc: 0]p: init_precond: 0.037 [ms]
[OGL LOG][StoppingCriterion.H:373] Creating stopping criterion with minIter 171 frequency 5
[OGL LOG][Proc: 0]p: generate_solver: 0.004 [ms]
[OGL LOG][Proc: 0]p: solve: 138.052 [ms]
[OGL LOG][Proc: 0]p: copy_x_back: 0.181 [ms]
[OGL LOG][lduLduBase.H:330] 
Statistics:
	Time per iteration: 458 [mu s]
	Time per residual norm calculation: 118.000000 [mu s]
	Time per iteration and DOF: 0.458000 [ns]
	Retrieve results bandwidth 2.762000 [GByte/s]
[OGL LOG][Proc: 0]p: solve_multi_gpu: 140.781 [ms]
nonehipGKOCG:  Solving for p, Initial residual = 0.00872526, Final residual = 9.8134e-05, No Iterations 301
piso step 145.221 [ms]
 contErrors 
time step continuity errors : sum local = 1.49534e-08, global = -6.37549e-22, cumulative = 8.74232e-21
piso setup 6.076 [ms]
 correctNonOrthogonal 
 setRef 
 startSolve 
[OGL LOG][Proc: 0]: global_index_init: 0.032 [ms]
[OGL LOG][Proc: 0]p_local_coeffs: call_update: 0 [ms]
[OGL LOG][Proc: 0]p_non_local_coeffs: call_update: 0 [ms]
[OGL LOG][Proc: 0]p: update_local_matrix_data: 0.64 [ms]
[OGL LOG][Proc: 0]p: update_non_local_matrix_data: 0.026 [ms]
[OGL LOG][Proc: 0]p_matrix: call_update: 1.862 [ms]
[OGL LOG][Proc: 0]p_rhs: call_update: 0.227 [ms]
[OGL LOG][Proc: 0]p: init_precond: 0.039 [ms]
[OGL LOG][StoppingCriterion.H:373] Creating stopping criterion with minIter 180 frequency 6
[OGL LOG][Proc: 0]p: generate_solver: 0.004 [ms]
[OGL LOG][Proc: 0]p: solve: 135.711 [ms]
[OGL LOG][Proc: 0]p: copy_x_back: 0.193 [ms]
[OGL LOG][lduLduBase.H:330] 
Statistics:
	Time per iteration: 460 [mu s]
	Time per residual norm calculation: 115.000000 [mu s]
	Time per iteration and DOF: 0.460000 [ns]
	Retrieve results bandwidth 2.590000 [GByte/s]
[OGL LOG][Proc: 0]p: solve_multi_gpu: 138.241 [ms]
nonehipGKOCG:  Solving for p, Initial residual = 0.00825113, Final residual = 9.36221e-05, No Iterations 295
piso step 142.423 [ms]
 contErrors 
time step continuity errors : sum local = 1.34108e-08, global = -9.09309e-21, cumulative = -3.50776e-22
ExecutionTime = 13.46 s  ClockTime = 14 s

Time = 0.01

Courant Number mean: 0.0736902 max: 0.478693
momentum setup 4.331 [ms]
DILUPBiCGStab:  Solving for Ux, Initial residual = 0.00367854, Final residual = 1.05642e-05, No Iterations 5
DILUPBiCGStab:  Solving for Uy, Initial residual = 0.00796207, Final residual = 1.94961e-05, No Iterations 5
DILUPBiCGStab:  Solving for Uz, Initial residual = 0.0165423, Final residual = 4.17312e-05, No Iterations 5
piso setup 6.182 [ms]
 correctNonOrthogonal 
 setRef 
 startSolve 
[OGL LOG][Proc: 0]: global_index_init: 0.036 [ms]
[OGL LOG][Proc: 0]p_local_coeffs: call_update: 0 [ms]
[OGL LOG][Proc: 0]p_non_local_coeffs: call_update: 0 [ms]
[OGL LOG][Proc: 0]p: update_local_matrix_data: 0.606 [ms]
[OGL LOG][Proc: 0]p: update_non_local_matrix_data: 0.02 [ms]
[OGL LOG][Proc: 0]p_matrix: call_update: 1.87 [ms]
[OGL LOG][Proc: 0]p_rhs: call_update: 0.209 [ms]
[OGL LOG][Proc: 0]p: init_precond: 0.035 [ms]
[OGL LOG][StoppingCriterion.H:373] Creating stopping criterion with minIter 177 frequency 5
[OGL LOG][Proc: 0]p: generate_solver: 0.004 [ms]
[OGL LOG][Proc: 0]p: solve: 138.627 [ms]
[OGL LOG][Proc: 0]p: copy_x_back: 0.184 [ms]
[OGL LOG][lduLduBase.H:330] 
Statistics:
	Time per iteration: 453 [mu s]
	Time per residual norm calculation: 119.000000 [mu s]
	Time per iteration and DOF: 0.453000 [ns]
	Retrieve results bandwidth 2.717000 [GByte/s]
[OGL LOG][Proc: 0]p: solve_multi_gpu: 141.138 [ms]
nonehipGKOCG:  Solving for p, Initial residual = 0.00828251, Final residual = 9.3107e-05, No Iterations 306
piso step 145.252 [ms]
 contErrors 
time step continuity errors : sum local = 1.4463e-08, global = -6.12165e-21, cumulative = -6.47243e-21
piso setup 6.019 [ms]
 correctNonOrthogonal 
 setRef 
 startSolve 
[OGL LOG][Proc: 0]: global_index_init: 0.04 [ms]
[OGL LOG][Proc: 0]p_local_coeffs: call_update: 0 [ms]
[OGL LOG][Proc: 0]p_non_local_coeffs: call_update: 0 [ms]
[OGL LOG][Proc: 0]p: update_local_matrix_data: 0.636 [ms]
[OGL LOG][Proc: 0]p: update_non_local_matrix_data: 0.02 [ms]
[OGL LOG][Proc: 0]p_matrix: call_update: 1.85 [ms]
[OGL LOG][Proc: 0]p_rhs: call_update: 0.203 [ms]
[OGL LOG][Proc: 0]p: init_precond: 0.039 [ms]
[OGL LOG][StoppingCriterion.H:373] Creating stopping criterion with minIter 183 frequency 6
[OGL LOG][Proc: 0]p: generate_solver: 0.004 [ms]
[OGL LOG][Proc: 0]p: solve: 143.479 [ms]
[OGL LOG][Proc: 0]p: copy_x_back: 0.187 [ms]
[OGL LOG][lduLduBase.H:330] 
Statistics:
	Time per iteration: 476 [mu s]
	Time per residual norm calculation: 119.000000 [mu s]
	Time per iteration and DOF: 0.476000 [ns]
	Retrieve results bandwidth 2.673000 [GByte/s]
[OGL LOG][Proc: 0]p: solve_multi_gpu: 145.965 [ms]
nonehipGKOCG:  Solving for p, Initial residual = 0.00785898, Final residual = 8.39442e-05, No Iterations 301
piso step 150.015 [ms]
 contErrors 
time step continuity errors : sum local = 1.22048e-08, global = -2.09473e-21, cumulative = -8.56716e-21
ExecutionTime = 13.83 s  ClockTime = 14 s

End

Finalising parallel run
