/*---------------------------------------------------------------------------*\
| =========                 |                                                 |
| \\      /  F ield         | OpenFOAM: The Open Source CFD Toolbox           |
|  \\    /   O peration     | Version:  2306                                  |
|   \\  /    A nd           | Website:  www.openfoam.com                      |
|    \\/     M anipulation  |                                                 |
\*---------------------------------------------------------------------------*/
Build  : a6e826bd55-20230630 OPENFOAM=2306 version=v2306
Arch   : "LSB;label=32;scalar=64"
Exec   : simpleFoam -parallel -case /home/greole/data/code/exasim_project/micro_benchmarks/WindsorBody/workspace/24099d55fda9735e65c97812e5dc08bc/case
Date   : Aug 02 2023
Time   : 14:37:32
Host   : nla-gpu2.ianm.kit.edu
PID    : 82779
I/O    : uncollated
Case   : /home/greole/data/code/exasim_project/micro_benchmarks/WindsorBody/workspace/24099d55fda9735e65c97812e5dc08bc/case
nProcs : 16
Hosts  :
(
    (nla-gpu2.ianm.kit.edu 16)
)
Pstream initialized with:
    floatTransfer      : false
    nProcsSimpleSum    : 0
    nonBlockingExchange: 0 (tuning: 0)
    exchange algorithm : -1
    commsType          : nonBlocking
    polling iterations : 0
trapFpe: Floating point exception trapping enabled (FOAM_SIGFPE).
fileModificationChecking : Monitoring run-time modified files using timeStampMaster (fileModificationSkew 5, maxFileModificationPolls 20)
allowSystemOperations : Allowing user-supplied system call operations

// * * * * * * * * * * * * * * * * * * * * * * * * * * * * * * * * * * * * * //
Create time

--> FOAM Warning : 
    From void* Foam::dlLibraryTable::openLibrary(const Foam::fileName&, bool)
    in file db/dynamicLibrary/dlLibraryTable/dlLibraryTable.C at line 188
    Could not load "libpetscFoam.so"
libpetscFoam.so: cannot open shared object file: No such file or directory
Create mesh for time = 0


SIMPLE: convergence criteria
    field p	 tolerance 1e-08
    field U	 tolerance 1e-08
    field k	 tolerance 1e-08
    field omega	 tolerance 1e-08
    field nuTilda	 tolerance 1e-08

Reading field p

Reading field U

Reading/calculating face flux field phi

Selecting incompressible transport model Newtonian
Selecting turbulence model type RAS
Selecting RAS turbulence model SpalartAllmaras
Selecting patchDistMethod meshWave
ft2 term: inactive
RAS
{
    RASModel        SpalartAllmaras;
    turbulence      on;
    printCoeffs     on;
    sigmaNut        0.66666;
    kappa           0.41;
    Cb1             0.1355;
    Cb2             0.622;
    Cw2             0.3;
    Cw3             2;
    Cv1             7.1;
    Cs              0.3;
    ck              0.07000000000000001;
    ft2             false;
    Ct3             1.2;
    Ct4             0.5;
}

No MRF models present

Creating finite volume options from "system/fvOptions"

Selecting finite volume options type velocityDampingConstraint
    Source: velocityDamping
    - selecting all cells
    - selected 18921408 cell(s) with volume 83.47749154808595

Starting time loop

--> FOAM Warning : 
    From bool Foam::functionObjectList::read()
    in file db/functionObjects/functionObjectList/functionObjectList.C at line 1035
    Reading "system/controlDict" at line 2 to 41
    Entry 'lref' is not a dictionary
--> FOAM Warning : 
    From bool Foam::functionObjectList::read()
    in file db/functionObjects/functionObjectList/functionObjectList.C at line 1035
    Reading "system/controlDict" at line 2 to 41
    Entry 'Aref' is not a dictionary
--> FOAM Warning : 
    From bool Foam::functionObjectList::read()
    in file db/functionObjects/functionObjectList/functionObjectList.C at line 1035
    Reading "system/controlDict" at line 2 to 41
    Entry 'yawAngle' is not a dictionary
--> FOAM Warning : 
    From bool Foam::functionObjectList::read()
    in file db/functionObjects/functionObjectList/functionObjectList.C at line 1035
    Reading "system/controlDict" at line 2 to 41
    Entry 'lDomain' is not a dictionary
--> FOAM Warning : 
    From bool Foam::functionObjectList::read()
    in file db/functionObjects/functionObjectList/functionObjectList.C at line 1035
    Reading "system/controlDict" at line 2 to 41
    Entry 'bDomain' is not a dictionary
--> FOAM Warning : 
    From bool Foam::functionObjectList::read()
    in file db/functionObjects/functionObjectList/functionObjectList.C at line 1035
    Reading "system/controlDict" at line 2 to 41
    Entry 'hDomain' is not a dictionary
--> FOAM Warning : 
    From bool Foam::functionObjectList::read()
    in file db/functionObjects/functionObjectList/functionObjectList.C at line 1035
    Reading "system/controlDict" at line 2 to 41
    Entry 'xCenter' is not a dictionary
--> FOAM Warning : 
    From bool Foam::functionObjectList::read()
    in file db/functionObjects/functionObjectList/functionObjectList.C at line 1035
    Reading "system/controlDict" at line 2 to 41
    Entry 'yCenter' is not a dictionary
--> FOAM Warning : 
    From bool Foam::functionObjectList::read()
    in file db/functionObjects/functionObjectList/functionObjectList.C at line 1035
    Reading "system/controlDict" at line 2 to 41
    Entry 'zCenter' is not a dictionary
--> FOAM Warning : 
    From bool Foam::functionObjectList::read()
    in file db/functionObjects/functionObjectList/functionObjectList.C at line 1035
    Reading "system/controlDict" at line 2 to 41
    Entry 'inletPatch' is not a dictionary
--> FOAM Warning : 
    From bool Foam::functionObjectList::read()
    in file db/functionObjects/functionObjectList/functionObjectList.C at line 1035
    Reading "system/controlDict" at line 2 to 41
    Entry 'outletPatch' is not a dictionary
--> FOAM Warning : 
    From bool Foam::functionObjectList::read()
    in file db/functionObjects/functionObjectList/functionObjectList.C at line 1035
    Reading "system/controlDict" at line 2 to 41
    Entry 'wallPatches' is not a dictionary
--> FOAM Warning : 
    From bool Foam::functionObjectList::read()
    in file db/functionObjects/functionObjectList/functionObjectList.C at line 1035
    Reading "system/controlDict" at line 2 to 41
    Entry 'forcesWallPatches' is not a dictionary
--> FOAM Warning : 
    From bool Foam::functionObjectList::read()
    in file db/functionObjects/functionObjectList/functionObjectList.C at line 1035
    Reading "system/controlDict" at line 2 to 41
    Entry 'symmPatches' is not a dictionary
--> FOAM Warning : 
    From bool Foam::functionObjectList::read()
    in file db/functionObjects/functionObjectList/functionObjectList.C at line 1035
    Reading "system/controlDict" at line 2 to 41
    Entry 'Uinf' is not a dictionary
--> FOAM Warning : 
    From bool Foam::functionObjectList::read()
    in file db/functionObjects/functionObjectList/functionObjectList.C at line 1035
    Reading "system/controlDict" at line 2 to 41
    Entry 'UinfMag' is not a dictionary
--> FOAM Warning : 
    From bool Foam::functionObjectList::read()
    in file db/functionObjects/functionObjectList/functionObjectList.C at line 1035
    Reading "system/controlDict" at line 2 to 41
    Entry 'nu' is not a dictionary
--> FOAM Warning : 
    From bool Foam::functionObjectList::read()
    in file db/functionObjects/functionObjectList/functionObjectList.C at line 1035
    Reading "system/controlDict" at line 2 to 41
    Entry 'pref' is not a dictionary
--> FOAM Warning : 
    From bool Foam::functionObjectList::read()
    in file db/functionObjects/functionObjectList/functionObjectList.C at line 1035
    Reading "system/controlDict" at line 2 to 41
    Entry 'viscRatio' is not a dictionary
--> FOAM Warning : 
    From bool Foam::functionObjectList::read()
    in file db/functionObjects/functionObjectList/functionObjectList.C at line 1035
    Reading "system/controlDict" at line 2 to 41
    Entry 'Tu' is not a dictionary
--> FOAM Warning : 
    From bool Foam::functionObjectList::read()
    in file db/functionObjects/functionObjectList/functionObjectList.C at line 1035
    Reading "system/controlDict" at line 2 to 41
    Entry 'LESturbModel' is not a dictionary
--> FOAM Warning : 
    From bool Foam::functionObjectList::read()
    in file db/functionObjects/functionObjectList/functionObjectList.C at line 1035
    Reading "system/controlDict" at line 2 to 41
    Entry 'RASturbModel' is not a dictionary
--> FOAM Warning : 
    From bool Foam::functionObjectList::read()
    in file db/functionObjects/functionObjectList/functionObjectList.C at line 1035
    Reading "system/controlDict" at line 2 to 41
    Entry 'deltaTurb' is not a dictionary
--> FOAM Warning : 
    From bool Foam::functionObjectList::read()
    in file db/functionObjects/functionObjectList/functionObjectList.C at line 1035
    Reading "system/controlDict" at line 2 to 41
    Entry 'dt' is not a dictionary
--> FOAM Warning : 
    From bool Foam::functionObjectList::read()
    in file db/functionObjects/functionObjectList/functionObjectList.C at line 1035
    Reading "system/controlDict" at line 2 to 41
    Entry 'tAvg' is not a dictionary
--> FOAM Warning : 
    From bool Foam::functionObjectList::read()
    in file db/functionObjects/functionObjectList/functionObjectList.C at line 1035
    Reading "system/controlDict" at line 2 to 41
    Entry 'tEnd' is not a dictionary
--> FOAM Warning : 
    From bool Foam::functionObjectList::read()
    in file db/functionObjects/functionObjectList/functionObjectList.C at line 1035
    Reading "system/controlDict" at line 2 to 41
    Entry 'writeInterval_' is not a dictionary
--> FOAM Warning : 
    From bool Foam::functionObjectList::read()
    in file db/functionObjects/functionObjectList/functionObjectList.C at line 1035
    Reading "system/controlDict" at line 2 to 41
    Entry 'nCores' is not a dictionary
--> FOAM Warning : 
    From bool Foam::functionObjectList::read()
    in file db/functionObjects/functionObjectList/functionObjectList.C at line 1035
    Reading "system/controlDict" at line 2 to 41
    Entry 'interpScheme' is not a dictionary
--> FOAM Warning : 
    From bool Foam::functionObjectList::read()
    in file db/functionObjects/functionObjectList/functionObjectList.C at line 1035
    Reading "system/controlDict" at line 2 to 41
    Entry 'probeField' is not a dictionary
wallShearStress wallShearStress:
    processing wall patches: 
        Windsor_Body
        CFDWT_Floor
        Windsor_Pins
        Windsor_Base
        Windsor_Body_2
        CFDWT_Floor_2
        Windsor_Pins_2
        Windsor_Base_2
        Windsor_Body_3
        CFDWT_Floor_3
        Windsor_Pins_3
        Windsor_Base_3

pressure calc_cp:
    Operating mode: staticCoeff
    Not including hydrostatic effects

forceCoeffs forceCoeffsAll:
    rho: rhoInf
    Freestream density (rhoInf) set to 1
    Not including porosity effects
    magUInf: 40
    lRef   : 0.6375
    Aref   : 0.1124
    rhoInf : 1
    Selecting all coefficients
    - Drag force: Cd
    - Drag force front: Cd(f)
    - Drag force rear: Cd(r)
    - Lift force: Cl
    - Lift force front: Cl(f)
    - Lift force rear: Cl(r)
    - Pitch moment: CmPitch
    - Roll moment: CmRoll
    - Yaw moment: CmYaw
    - Side force: Cs
    - Side force front: Cs(f)
    - Side force rear: Cs(r)


forceCoeffs dragCoeffBase:
    rho: rhoInf
    Freestream density (rhoInf) set to 1
    Not including porosity effects
    magUInf: 40
    lRef   : 0.6375
    Aref   : 0.1124
    rhoInf : 1
    Selecting coefficients:
    - Drag force: Cd


Time = 1

velocityDampingConstraint velocityDamping damped 0 (0%) of cells, with max limit 300
[INFO] MatrixAssemblyU: 1685.517 [ms]
smoothSolver:  Solving for Ux, Initial residual = 0.9999999999991638, Final residual = 0.08731797386317708, No Iterations 15
smoothSolver:  Solving for Uy, Initial residual = 1, Final residual = 0.08970563155359472, No Iterations 31
smoothSolver:  Solving for Uz, Initial residual = 1, Final residual = 0.03285841130865035, No Iterations 2
[INFO] MomentumPredictor: 1647.286 [ms]
[INFO] MatrixAssemblyPI: 261.739 [ms]
[INFO] MatrixAssemblyPII: 129.883 [ms]
DICPCG:  Solving for p, Initial residual = 1, Final residual = 0.00953948790949931, No Iterations 420
[INFO] SolveP: 15562.057 [ms]
time step continuity errors : sum local = 0.003500087902219705, global = 7.949165269752839e-05, cumulative = 7.949165269752839e-05
[INFO] postSolveP: 70.571 [ms]
smoothSolver:  Solving for nuTilda, Initial residual = 0.99999999566836, Final residual = 0.06430358269829169, No Iterations 3
[INFO] TimeStep: 20368.619 [ms]
ExecutionTime = 43.8 s  ClockTime = 44 s

--> FOAM Warning : 
    From virtual bool Foam::functionObjects::fieldSelection::checkSelection()
    in file functionObjects/fieldSelections/fieldSelection/fieldSelection.C at line 166
    Field k not found
--> FOAM Warning : 
    From virtual bool Foam::functionObjects::fieldSelection::checkSelection()
    in file functionObjects/fieldSelections/fieldSelection/fieldSelection.C at line 166
    Field gammaInt not found
--> FOAM Warning : 
    From virtual bool Foam::functionObjects::fieldSelection::checkSelection()
    in file functionObjects/fieldSelections/fieldSelection/fieldSelection.C at line 166
    Field omega not found
--> FOAM Warning : 
    From virtual bool Foam::functionObjects::fieldSelection::checkSelection()
    in file functionObjects/fieldSelections/fieldSelection/fieldSelection.C at line 166
    Field ReThetat not found
--> FOAM Warning : 
    From virtual bool Foam::functionObjects::fieldSelection::checkSelection()
    in file functionObjects/fieldSelections/fieldSelection/fieldSelection.C at line 166
    Field epsilon not found
--> FOAM Warning : 
    From virtual bool Foam::functionObjects::solverFieldSelection::updateSelection()
    in file functionObjects/fieldSelections/solverFieldSelection/solverFieldSelection.C at line 85
    Valid solver fields are: 3(U nuTilda p)Time = 2

velocityDampingConstraint velocityDamping damped 0 (0%) of cells, with max limit 300
[INFO] MatrixAssemblyU: 1621.735 [ms]
smoothSolver:  Solving for Ux, Initial residual = 0.2130824848896052, Final residual = 0.0184132947064201, No Iterations 13
smoothSolver:  Solving for Uy, Initial residual = 0.3545458670049006, Final residual = 0.03307909497942409, No Iterations 13
smoothSolver:  Solving for Uz, Initial residual = 0.3287727991710335, Final residual = 0.02813111130482986, No Iterations 13
[INFO] MomentumPredictor: 1377.709 [ms]
[INFO] MatrixAssemblyPI: 260.76 [ms]
[INFO] MatrixAssemblyPII: 129.927 [ms]
DICPCG:  Solving for p, Initial residual = 0.2098095358750929, Final residual = 0.002059229150319752, No Iterations 339
[INFO] SolveP: 12554.445 [ms]
time step continuity errors : sum local = 0.0422002308229636, global = 0.001762672617914949, cumulative = 0.001842164270612477
[INFO] postSolveP: 69.92400000000001 [ms]
smoothSolver:  Solving for nuTilda, Initial residual = 0.4060262008371262, Final residual = 0.02532728350763971, No Iterations 1
[INFO] TimeStep: 16985.836 [ms]
ExecutionTime = 62.04 s  ClockTime = 63 s

Time = 3

velocityDampingConstraint velocityDamping damped 2494 (0.01%) of cells, with max limit 300
[INFO] MatrixAssemblyU: 1669.915 [ms]
smoothSolver:  Solving for Ux, Initial residual = 0.1249183607347909, Final residual = 0.01178045825972475, No Iterations 9
smoothSolver:  Solving for Uy, Initial residual = 0.2052562791401017, Final residual = 0.01966453506970405, No Iterations 10
smoothSolver:  Solving for Uz, Initial residual = 0.2190153356914068, Final residual = 0.02141372626690845, No Iterations 9
[INFO] MomentumPredictor: 1057.355 [ms]
[INFO] MatrixAssemblyPI: 260.588 [ms]
[INFO] MatrixAssemblyPII: 130.012 [ms]
DICPCG:  Solving for p, Initial residual = 0.1187548253913458, Final residual = 0.001177096999229477, No Iterations 187
[INFO] SolveP: 6927.59 [ms]
time step continuity errors : sum local = 0.01314154371716739, global = -0.0009592101032525877, cumulative = 0.0008829541673598896
[INFO] postSolveP: 69.502 [ms]
smoothSolver:  Solving for nuTilda, Initial residual = 0.2091456324700015, Final residual = 0.01313294317692416, No Iterations 2
[INFO] TimeStep: 11111.875 [ms]
ExecutionTime = 74.44 s  ClockTime = 75 s

Time = 4

velocityDampingConstraint velocityDamping damped 0 (0%) of cells, with max limit 300
[INFO] MatrixAssemblyU: 1664.304 [ms]
smoothSolver:  Solving for Ux, Initial residual = 0.05385596398670822, Final residual = 0.004964536985536924, No Iterations 11
smoothSolver:  Solving for Uy, Initial residual = 0.1228575857913958, Final residual = 0.01104565724375862, No Iterations 11
smoothSolver:  Solving for Uz, Initial residual = 0.1338361532698844, Final residual = 0.01309950167064421, No Iterations 10
[INFO] MomentumPredictor: 1168.35 [ms]
[INFO] MatrixAssemblyPI: 261.591 [ms]
[INFO] MatrixAssemblyPII: 129.911 [ms]
DICPCG:  Solving for p, Initial residual = 0.1351753368491781, Final residual = 0.00134549191744838, No Iterations 107
[INFO] SolveP: 4012.12 [ms]
time step continuity errors : sum local = 0.01339548208592544, global = -0.002067941698546836, cumulative = -0.001184987531186947
[INFO] postSolveP: 69.533 [ms]
smoothSolver:  Solving for nuTilda, Initial residual = 0.1247404591318526, Final residual = 0.01050774074127079, No Iterations 2
[INFO] TimeStep: 8297.786 [ms]
ExecutionTime = 84.05 s  ClockTime = 85 s

Time = 5

velocityDampingConstraint velocityDamping damped 344 (0%) of cells, with max limit 300
[INFO] MatrixAssemblyU: 1649.788 [ms]
smoothSolver:  Solving for Ux, Initial residual = 0.0437956925300001, Final residual = 0.004199189117749511, No Iterations 10
smoothSolver:  Solving for Uy, Initial residual = 0.09777583281189782, Final residual = 0.00932970091793273, No Iterations 11
smoothSolver:  Solving for Uz, Initial residual = 0.1137830710892241, Final residual = 0.01136998723016352, No Iterations 10
[INFO] MomentumPredictor: 1143.49 [ms]
[INFO] MatrixAssemblyPI: 261.462 [ms]
[INFO] MatrixAssemblyPII: 129.858 [ms]
DICPCG:  Solving for p, Initial residual = 0.09735325805202229, Final residual = 0.0009583440703072536, No Iterations 230
[INFO] SolveP: 8474.700999999999 [ms]
time step continuity errors : sum local = 0.007570790035349527, global = -0.0002243525441739372, cumulative = -0.001409340075360884
[INFO] postSolveP: 69.61 [ms]
smoothSolver:  Solving for nuTilda, Initial residual = 0.07084642344574384, Final residual = 0.00430802168501874, No Iterations 3
[INFO] TimeStep: 12742.507 [ms]
ExecutionTime = 98.06999999999999 s  ClockTime = 99 s

Time = 6

velocityDampingConstraint velocityDamping damped 0 (0%) of cells, with max limit 300
[INFO] MatrixAssemblyU: 1641.263 [ms]
smoothSolver:  Solving for Ux, Initial residual = 0.02993196422269099, Final residual = 0.002652545562672908, No Iterations 12
smoothSolver:  Solving for Uy, Initial residual = 0.07457211390555135, Final residual = 0.006864938719711013, No Iterations 12
smoothSolver:  Solving for Uz, Initial residual = 0.08112867450540712, Final residual = 0.006922176829559264, No Iterations 12
[INFO] MomentumPredictor: 1287.947 [ms]
[INFO] MatrixAssemblyPI: 261.264 [ms]
[INFO] MatrixAssemblyPII: 130.46 [ms]
DICPCG:  Solving for p, Initial residual = 0.09747224490413213, Final residual = 0.0009511426574999511, No Iterations 139
[INFO] SolveP: 5197.268 [ms]
time step continuity errors : sum local = 0.006916505947165405, global = 0.0006002429996702981, cumulative = -0.0008090970756905859
[INFO] postSolveP: 70.111 [ms]
smoothSolver:  Solving for nuTilda, Initial residual = 0.06420019625730078, Final residual = 0.00300267639881896, No Iterations 3
[INFO] TimeStep: 9598.564 [ms]
ExecutionTime = 108.95 s  ClockTime = 110 s

Time = 7

velocityDampingConstraint velocityDamping damped 39 (0%) of cells, with max limit 300
[INFO] MatrixAssemblyU: 1630.779 [ms]
smoothSolver:  Solving for Ux, Initial residual = 0.02720476658608584, Final residual = 0.002430989638400408, No Iterations 12
smoothSolver:  Solving for Uy, Initial residual = 0.06742714719312906, Final residual = 0.006385050207682424, No Iterations 12
smoothSolver:  Solving for Uz, Initial residual = 0.07109240054596683, Final residual = 0.006221431553664186, No Iterations 12
[INFO] MomentumPredictor: 1284.038 [ms]
[INFO] MatrixAssemblyPI: 260.702 [ms]
[INFO] MatrixAssemblyPII: 130.443 [ms]
DICPCG:  Solving for p, Initial residual = 0.08306756262302911, Final residual = 0.0008271749973090231, No Iterations 122
[INFO] SolveP: 4518.008 [ms]
time step continuity errors : sum local = 0.006043161086165133, global = 0.0007911388833482103, cumulative = -1.795819234237564e-05
[INFO] postSolveP: 69.779 [ms]
smoothSolver:  Solving for nuTilda, Initial residual = 0.04909452628800135, Final residual = 0.003228757608773642, No Iterations 3
[INFO] TimeStep: 8903.885 [ms]
ExecutionTime = 119.13 s  ClockTime = 120 s

Time = 8

velocityDampingConstraint velocityDamping damped 0 (0%) of cells, with max limit 300
[INFO] MatrixAssemblyU: 1629.586 [ms]
smoothSolver:  Solving for Ux, Initial residual = 0.02311585553011923, Final residual = 0.002139642960870017, No Iterations 12
smoothSolver:  Solving for Uy, Initial residual = 0.05993092015529349, Final residual = 0.005883092286055084, No Iterations 12
smoothSolver:  Solving for Uz, Initial residual = 0.0618178214539997, Final residual = 0.005591706678206253, No Iterations 12
[INFO] MomentumPredictor: 1282.781 [ms]
[INFO] MatrixAssemblyPI: 261.956 [ms]
[INFO] MatrixAssemblyPII: 130.049 [ms]
DICPCG:  Solving for p, Initial residual = 0.07505280175376014, Final residual = 0.0007399795140301965, No Iterations 117
[INFO] SolveP: 4379.269 [ms]
time step continuity errors : sum local = 0.005505408215866683, global = 0.0009454570729302889, cumulative = 0.0009274988805879133
[INFO] postSolveP: 69.33499999999999 [ms]
smoothSolver:  Solving for nuTilda, Initial residual = 0.0653157152572811, Final residual = 0.00586105073369529, No Iterations 2
[INFO] TimeStep: 8731.415000000001 [ms]
ExecutionTime = 129.13 s  ClockTime = 130 s

Time = 9

velocityDampingConstraint velocityDamping damped 0 (0%) of cells, with max limit 300
[INFO] MatrixAssemblyU: 1628.932 [ms]
smoothSolver:  Solving for Ux, Initial residual = 0.02035624416524437, Final residual = 0.001901182721830854, No Iterations 12
smoothSolver:  Solving for Uy, Initial residual = 0.05419608711683099, Final residual = 0.005402533657368447, No Iterations 12
smoothSolver:  Solving for Uz, Initial residual = 0.05508014576071768, Final residual = 0.005119932951396284, No Iterations 12
[INFO] MomentumPredictor: 1288.795 [ms]
[INFO] MatrixAssemblyPI: 262.034 [ms]
[INFO] MatrixAssemblyPII: 130.014 [ms]
DICPCG:  Solving for p, Initial residual = 0.06839226973660588, Final residual = 0.0006799072881550015, No Iterations 118
[INFO] SolveP: 4366.872 [ms]
time step continuity errors : sum local = 0.005139221380836165, global = 0.001131775930696163, cumulative = 0.002059274811284076
[INFO] postSolveP: 69.322 [ms]
smoothSolver:  Solving for nuTilda, Initial residual = 0.04412462208749389, Final residual = 0.003200510952905885, No Iterations 3
[INFO] TimeStep: 8753.564 [ms]
ExecutionTime = 139.15 s  ClockTime = 140 s

Time = 10

velocityDampingConstraint velocityDamping damped 0 (0%) of cells, with max limit 300
[INFO] MatrixAssemblyU: 1626.352 [ms]
smoothSolver:  Solving for Ux, Initial residual = 0.01834754041537496, Final residual = 0.001726676980641639, No Iterations 12
smoothSolver:  Solving for Uy, Initial residual = 0.05005733133432541, Final residual = 0.004983895909544608, No Iterations 12
smoothSolver:  Solving for Uz, Initial residual = 0.05045920104051538, Final residual = 0.004757272081525423, No Iterations 12
[INFO] MomentumPredictor: 1284.697 [ms]
[INFO] MatrixAssemblyPI: 262.172 [ms]
[INFO] MatrixAssemblyPII: 130.003 [ms]
DICPCG:  Solving for p, Initial residual = 0.06202580440095748, Final residual = 0.0006151560498342034, No Iterations 230
[INFO] SolveP: 8566.206 [ms]
time step continuity errors : sum local = 0.004641539629316118, global = 9.511358169617918e-05, cumulative = 0.002154388392980255
[INFO] postSolveP: 70.212 [ms]
smoothSolver:  Solving for nuTilda, Initial residual = 0.06963874425834217, Final residual = 0.005487559621027375, No Iterations 2
[INFO] TimeStep: 12914.985 [ms]
ExecutionTime = 153.32 s  ClockTime = 154 s

Time = 11

velocityDampingConstraint velocityDamping damped 0 (0%) of cells, with max limit 300
[INFO] MatrixAssemblyU: 1621.649 [ms]
smoothSolver:  Solving for Ux, Initial residual = 0.01673567634099109, Final residual = 0.001601406634919627, No Iterations 12
smoothSolver:  Solving for Uy, Initial residual = 0.04755145764578378, Final residual = 0.004707724439970559, No Iterations 12
smoothSolver:  Solving for Uz, Initial residual = 0.04756448634215046, Final residual = 0.004520295163981352, No Iterations 12
[INFO] MomentumPredictor: 1285.116 [ms]
[INFO] MatrixAssemblyPI: 260.68 [ms]
[INFO] MatrixAssemblyPII: 130.051 [ms]
DICPCG:  Solving for p, Initial residual = 0.05451767853421244, Final residual = 0.0005430483332830875, No Iterations 107
[INFO] SolveP: 3981.662 [ms]
time step continuity errors : sum local = 0.004343111415896151, global = -0.0005152532476192583, cumulative = 0.001639135145360997
[INFO] postSolveP: 69.18899999999999 [ms]
smoothSolver:  Solving for nuTilda, Initial residual = 0.03912214861532202, Final residual = 0.003025849342860825, No Iterations 3
[INFO] TimeStep: 8353.225 [ms]
ExecutionTime = 162.94 s  ClockTime = 164 s

Time = 12

velocityDampingConstraint velocityDamping damped 0 (0%) of cells, with max limit 300
[INFO] MatrixAssemblyU: 1623.002 [ms]
smoothSolver:  Solving for Ux, Initial residual = 0.01551917646840282, Final residual = 0.001513569986862959, No Iterations 12
smoothSolver:  Solving for Uy, Initial residual = 0.04528054611459172, Final residual = 0.004443935835422309, No Iterations 12
smoothSolver:  Solving for Uz, Initial residual = 0.04477682439398389, Final residual = 0.004272983489139225, No Iterations 12
[INFO] MomentumPredictor: 1282.44 [ms]
[INFO] MatrixAssemblyPI: 262.219 [ms]
[INFO] MatrixAssemblyPII: 129.937 [ms]
DICPCG:  Solving for p, Initial residual = 0.05163026283619884, Final residual = 0.0005135614239473883, No Iterations 113
[INFO] SolveP: 4237.571 [ms]
time step continuity errors : sum local = 0.004055979858555375, global = -0.0006918830436195749, cumulative = 0.0009472521017414221
[INFO] postSolveP: 69.07299999999999 [ms]
smoothSolver:  Solving for nuTilda, Initial residual = 0.06547426922538964, Final residual = 0.005100357468224768, No Iterations 2
[INFO] TimeStep: 8579.518 [ms]
ExecutionTime = 172.78 s  ClockTime = 174 s

Time = 13

velocityDampingConstraint velocityDamping damped 0 (0%) of cells, with max limit 300
[INFO] MatrixAssemblyU: 1619.376 [ms]
smoothSolver:  Solving for Ux, Initial residual = 0.01449585630321691, Final residual = 0.001441380718457556, No Iterations 12
smoothSolver:  Solving for Uy, Initial residual = 0.04336112355392528, Final residual = 0.004243435905686725, No Iterations 12
smoothSolver:  Solving for Uz, Initial residual = 0.04294790308762405, Final residual = 0.004124775439472556, No Iterations 12
[INFO] MomentumPredictor: 1289.774 [ms]
[INFO] MatrixAssemblyPI: 261.597 [ms]
[INFO] MatrixAssemblyPII: 130.442 [ms]
DICPCG:  Solving for p, Initial residual = 0.04911639937727422, Final residual = 0.0004770252191050717, No Iterations 118
[INFO] SolveP: 4390.282 [ms]
time step continuity errors : sum local = 0.003746695170000957, global = -0.0007429437186849457, cumulative = 0.0002043083830564765
[INFO] postSolveP: 69.607 [ms]
smoothSolver:  Solving for nuTilda, Initial residual = 0.03469533872138358, Final residual = 0.002828664198798128, No Iterations 3
[INFO] TimeStep: 8764.998 [ms]
ExecutionTime = 182.8 s  ClockTime = 184 s

Time = 14

velocityDampingConstraint velocityDamping damped 0 (0%) of cells, with max limit 300
[INFO] MatrixAssemblyU: 1619.153 [ms]
smoothSolver:  Solving for Ux, Initial residual = 0.01368230611109107, Final residual = 0.001171865766784857, No Iterations 13
smoothSolver:  Solving for Uy, Initial residual = 0.04156898127639311, Final residual = 0.004081914966700048, No Iterations 12
smoothSolver:  Solving for Uz, Initial residual = 0.0419730870503513, Final residual = 0.004050281962449006, No Iterations 12
[INFO] MomentumPredictor: 1314.874 [ms]
[INFO] MatrixAssemblyPI: 260.972 [ms]
[INFO] MatrixAssemblyPII: 130.04 [ms]
DICPCG:  Solving for p, Initial residual = 0.04699147337992469, Final residual = 0.0004639552026207499, No Iterations 100
[INFO] SolveP: 3753.432 [ms]
time step continuity errors : sum local = 0.003633431359294375, global = -0.0007387442360278594, cumulative = -0.000534435852971383
[INFO] postSolveP: 70.461 [ms]
smoothSolver:  Solving for nuTilda, Initial residual = 0.05810388435013802, Final residual = 0.004800435415730452, No Iterations 2
[INFO] TimeStep: 8123.2 [ms]
ExecutionTime = 192.19 s  ClockTime = 193 s

Time = 15

velocityDampingConstraint velocityDamping damped 0 (0%) of cells, with max limit 300
[INFO] MatrixAssemblyU: 1615.509 [ms]
smoothSolver:  Solving for Ux, Initial residual = 0.0128260934998293, Final residual = 0.001109399876784936, No Iterations 13
smoothSolver:  Solving for Uy, Initial residual = 0.04017881483540781, Final residual = 0.003974938647388989, No Iterations 12
smoothSolver:  Solving for Uz, Initial residual = 0.04169910750494596, Final residual = 0.004055088141958817, No Iterations 12
[INFO] MomentumPredictor: 1314.691 [ms]
[INFO] MatrixAssemblyPI: 260.633 [ms]
[INFO] MatrixAssemblyPII: 129.586 [ms]
DICPCG:  Solving for p, Initial residual = 0.04562141537591281, Final residual = 0.0004488711882303382, No Iterations 109
[INFO] SolveP: 4050.252 [ms]
time step continuity errors : sum local = 0.003513789155333199, global = -0.0006584821749418225, cumulative = -0.001192918027913205
[INFO] postSolveP: 69.54300000000001 [ms]
smoothSolver:  Solving for nuTilda, Initial residual = 0.03134454980421194, Final residual = 0.002662241979135096, No Iterations 3
[INFO] TimeStep: 8441.554 [ms]
ExecutionTime = 201.89 s  ClockTime = 203 s

Time = 16

velocityDampingConstraint velocityDamping damped 0 (0%) of cells, with max limit 300
[INFO] MatrixAssemblyU: 1617.349 [ms]
smoothSolver:  Solving for Ux, Initial residual = 0.01220571226320056, Final residual = 0.001055173427540228, No Iterations 13
smoothSolver:  Solving for Uy, Initial residual = 0.0392831488595114, Final residual = 0.003904988648393243, No Iterations 12
smoothSolver:  Solving for Uz, Initial residual = 0.04158073010104481, Final residual = 0.00405038091423677, No Iterations 12
[INFO] MomentumPredictor: 1311.352 [ms]
[INFO] MatrixAssemblyPI: 262.14 [ms]
[INFO] MatrixAssemblyPII: 129.505 [ms]
DICPCG:  Solving for p, Initial residual = 0.04447900187839365, Final residual = 0.0004343451502808067, No Iterations 98
[INFO] SolveP: 3685.693 [ms]
time step continuity errors : sum local = 0.003399723198253395, global = -0.0004917691900051693, cumulative = -0.001684687217918375
[INFO] postSolveP: 69.22199999999999 [ms]
smoothSolver:  Solving for nuTilda, Initial residual = 0.05167504170405788, Final residual = 0.00455243289499993, No Iterations 2
[INFO] TimeStep: 8047.534 [ms]
ExecutionTime = 211.19 s  ClockTime = 212 s

Time = 17

velocityDampingConstraint velocityDamping damped 0 (0%) of cells, with max limit 300
[INFO] MatrixAssemblyU: 1612.567 [ms]
smoothSolver:  Solving for Ux, Initial residual = 0.01159171849083651, Final residual = 0.001007418752458176, No Iterations 13
smoothSolver:  Solving for Uy, Initial residual = 0.03876947196989862, Final residual = 0.003299762267515876, No Iterations 13
smoothSolver:  Solving for Uz, Initial residual = 0.04157111802476166, Final residual = 0.004061521805255682, No Iterations 12
[INFO] MomentumPredictor: 1351.293 [ms]
[INFO] MatrixAssemblyPI: 260.698 [ms]
[INFO] MatrixAssemblyPII: 130.022 [ms]
DICPCG:  Solving for p, Initial residual = 0.04416630021366385, Final residual = 0.0004349352590016823, No Iterations 101
[INFO] SolveP: 3753.959 [ms]
time step continuity errors : sum local = 0.003414057066902395, global = -0.0002733586340373653, cumulative = -0.00195804585195574
[INFO] postSolveP: 69.79300000000001 [ms]
smoothSolver:  Solving for nuTilda, Initial residual = 0.02888606023732163, Final residual = 0.002513486561794225, No Iterations 3
[INFO] TimeStep: 8179.056 [ms]
ExecutionTime = 220.63 s  ClockTime = 222 s

Time = 18

velocityDampingConstraint velocityDamping damped 0 (0%) of cells, with max limit 300
[INFO] MatrixAssemblyU: 1610.698 [ms]
smoothSolver:  Solving for Ux, Initial residual = 0.01125652743295419, Final residual = 0.0009685391288201489, No Iterations 13
smoothSolver:  Solving for Uy, Initial residual = 0.03851275239247674, Final residual = 0.003287608448405033, No Iterations 13
smoothSolver:  Solving for Uz, Initial residual = 0.04181730201034691, Final residual = 0.004068733007375361, No Iterations 12
[INFO] MomentumPredictor: 1344.436 [ms]
[INFO] MatrixAssemblyPI: 260.987 [ms]
[INFO] MatrixAssemblyPII: 130.514 [ms]
DICPCG:  Solving for p, Initial residual = 0.04412033735313758, Final residual = 0.0004372425021377982, No Iterations 104
[INFO] SolveP: 3892.705 [ms]
time step continuity errors : sum local = 0.003447424447738708, global = -2.842192427233025e-06, cumulative = -0.001960888044382973
[INFO] postSolveP: 69.18600000000001 [ms]
smoothSolver:  Solving for nuTilda, Initial residual = 0.04635044594763561, Final residual = 0.004302129023341216, No Iterations 2
[INFO] TimeStep: 8281.297 [ms]
ExecutionTime = 230.17 s  ClockTime = 231 s

Time = 19

velocityDampingConstraint velocityDamping damped 0 (0%) of cells, with max limit 300
[INFO] MatrixAssemblyU: 1610.46 [ms]
smoothSolver:  Solving for Ux, Initial residual = 0.01090764504497958, Final residual = 0.0009379875970256567, No Iterations 13
smoothSolver:  Solving for Uy, Initial residual = 0.03884372941861378, Final residual = 0.003316772285914911, No Iterations 13
smoothSolver:  Solving for Uz, Initial residual = 0.04254926404765785, Final residual = 0.004111251729989638, No Iterations 12
[INFO] MomentumPredictor: 1344.121 [ms]
[INFO] MatrixAssemblyPI: 261.25 [ms]
[INFO] MatrixAssemblyPII: 130.019 [ms]
DICPCG:  Solving for p, Initial residual = 0.04440032255746125, Final residual = 0.0004437163497708663, No Iterations 114
[INFO] SolveP: 4221.338 [ms]
time step continuity errors : sum local = 0.003517500389050217, global = 0.0002861200874670868, cumulative = -0.001674767956915886
[INFO] postSolveP: 69.923 [ms]
smoothSolver:  Solving for nuTilda, Initial residual = 0.0269580208053671, Final residual = 0.002364370796062018, No Iterations 3
[INFO] TimeStep: 8637.543 [ms]
ExecutionTime = 240.06 s  ClockTime = 241 s

Time = 20

velocityDampingConstraint velocityDamping damped 0 (0%) of cells, with max limit 300
[INFO] MatrixAssemblyU: 1609.711 [ms]
smoothSolver:  Solving for Ux, Initial residual = 0.01073248864696189, Final residual = 0.0009183780177318611, No Iterations 13
smoothSolver:  Solving for Uy, Initial residual = 0.03925028434058328, Final residual = 0.003917447169539936, No Iterations 12
smoothSolver:  Solving for Uz, Initial residual = 0.04313031587214623, Final residual = 0.004140275036142921, No Iterations 12
[INFO] MomentumPredictor: 1312.774 [ms]
[INFO] MatrixAssemblyPI: 260.709 [ms]
[INFO] MatrixAssemblyPII: 129.77 [ms]
DICPCG:  Solving for p, Initial residual = 0.04430145313139093, Final residual = 0.0004342015251196048, No Iterations 121
[INFO] SolveP: 4529.755 [ms]
time step continuity errors : sum local = 0.003475971391545309, global = 0.0005419392689085563, cumulative = -0.00113282868800733
[INFO] postSolveP: 69.321 [ms]
smoothSolver:  Solving for nuTilda, Initial residual = 0.0418193636769089, Final residual = 0.004048096528482135, No Iterations 2
[INFO] TimeStep: 8890.733 [ms]
ExecutionTime = 250.2 s  ClockTime = 252 s

Time = 21

velocityDampingConstraint velocityDamping damped 0 (0%) of cells, with max limit 300
[INFO] MatrixAssemblyU: 1610.923 [ms]
smoothSolver:  Solving for Ux, Initial residual = 0.01052762940117126, Final residual = 0.0009040092138139332, No Iterations 13
smoothSolver:  Solving for Uy, Initial residual = 0.03989410512696465, Final residual = 0.003965354120099314, No Iterations 12
smoothSolver:  Solving for Uz, Initial residual = 0.04346081315623416, Final residual = 0.004136181737467934, No Iterations 12
[INFO] MomentumPredictor: 1321.429 [ms]
[INFO] MatrixAssemblyPI: 261.483 [ms]
[INFO] MatrixAssemblyPII: 129.936 [ms]
DICPCG:  Solving for p, Initial residual = 0.04430108132011173, Final residual = 0.0004394444586153874, No Iterations 129
[INFO] SolveP: 4779.527 [ms]
time step continuity errors : sum local = 0.003565281974313972, global = 0.0007403859648397844, cumulative = -0.0003924427231675453
[INFO] postSolveP: 69.083 [ms]
smoothSolver:  Solving for nuTilda, Initial residual = 0.02516629908448371, Final residual = 0.002219117958865138, No Iterations 3
[INFO] TimeStep: 9173.893 [ms]
ExecutionTime = 260.62 s  ClockTime = 262 s

Time = 22

velocityDampingConstraint velocityDamping damped 0 (0%) of cells, with max limit 300
[INFO] MatrixAssemblyU: 1612.722 [ms]
smoothSolver:  Solving for Ux, Initial residual = 0.01048792044827962, Final residual = 0.001047262177482851, No Iterations 12
smoothSolver:  Solving for Uy, Initial residual = 0.04052739513819231, Final residual = 0.003988670079667282, No Iterations 12
smoothSolver:  Solving for Uz, Initial residual = 0.04336024519069594, Final residual = 0.004095013470736195, No Iterations 12
[INFO] MomentumPredictor: 1286.766 [ms]
[INFO] MatrixAssemblyPI: 261.972 [ms]
[INFO] MatrixAssemblyPII: 129.878 [ms]
DICPCG:  Solving for p, Initial residual = 0.04397773907620708, Final residual = 0.0004330214779647926, No Iterations 234
[INFO] SolveP: 8710.021000000001 [ms]
time step continuity errors : sum local = 0.003565857456798441, global = 2.551213943140406e-05, cumulative = -0.0003669305837361412
[INFO] postSolveP: 69.48699999999999 [ms]
smoothSolver:  Solving for nuTilda, Initial residual = 0.03795932314200524, Final residual = 0.002018604347058354, No Iterations 3
[INFO] TimeStep: 13072.56 [ms]
ExecutionTime = 274.93 s  ClockTime = 276 s

Time = 23

velocityDampingConstraint velocityDamping damped 0 (0%) of cells, with max limit 300
[INFO] MatrixAssemblyU: 1607.713 [ms]
smoothSolver:  Solving for Ux, Initial residual = 0.01040438841106275, Final residual = 0.001038977297333362, No Iterations 12
smoothSolver:  Solving for Uy, Initial residual = 0.04131433020879853, Final residual = 0.003993872433804485, No Iterations 12
smoothSolver:  Solving for Uz, Initial residual = 0.04311349701211883, Final residual = 0.0040154518878098, No Iterations 12
[INFO] MomentumPredictor: 1284.903 [ms]
[INFO] MatrixAssemblyPI: 261.492 [ms]
[INFO] MatrixAssemblyPII: 130.816 [ms]
DICPCG:  Solving for p, Initial residual = 0.04243084121947494, Final residual = 0.0004203488430249311, No Iterations 113
[INFO] SolveP: 4198.696 [ms]
time step continuity errors : sum local = 0.003624090320266291, global = -8.573163164815186e-05, cumulative = -0.000452662215384293
[INFO] postSolveP: 69.565 [ms]
smoothSolver:  Solving for nuTilda, Initial residual = 0.0233459887499446, Final residual = 0.002087761684602372, No Iterations 3
[INFO] TimeStep: 8553.082 [ms]
ExecutionTime = 284.73 s  ClockTime = 286 s

Time = 24

velocityDampingConstraint velocityDamping damped 0 (0%) of cells, with max limit 300
[INFO] MatrixAssemblyU: 1609.874 [ms]
smoothSolver:  Solving for Ux, Initial residual = 0.01038727395671324, Final residual = 0.001034317099866138, No Iterations 12
smoothSolver:  Solving for Uy, Initial residual = 0.04180327643669542, Final residual = 0.004025562094212016, No Iterations 12
smoothSolver:  Solving for Uz, Initial residual = 0.04248752215111185, Final residual = 0.003929389119130489, No Iterations 12
[INFO] MomentumPredictor: 1283.37 [ms]
[INFO] MatrixAssemblyPI: 260.622 [ms]
[INFO] MatrixAssemblyPII: 129.531 [ms]
DICPCG:  Solving for p, Initial residual = 0.04255381932076451, Final residual = 0.0004248247113561487, No Iterations 117
[INFO] SolveP: 4379.026 [ms]
time step continuity errors : sum local = 0.003673760333472676, global = -2.703932542224552e-05, cumulative = -0.0004797015408065386
[INFO] postSolveP: 68.86 [ms]
smoothSolver:  Solving for nuTilda, Initial residual = 0.03445739557578709, Final residual = 0.001909360309741822, No Iterations 3
[INFO] TimeStep: 8730.664000000001 [ms]
ExecutionTime = 294.71 s  ClockTime = 296 s

Time = 25

velocityDampingConstraint velocityDamping damped 0 (0%) of cells, with max limit 300
[INFO] MatrixAssemblyU: 1609.33 [ms]
smoothSolver:  Solving for Ux, Initial residual = 0.01032663835579932, Final residual = 0.0008848179166652218, No Iterations 13
smoothSolver:  Solving for Uy, Initial residual = 0.04261513222884932, Final residual = 0.004118820784754919, No Iterations 12
smoothSolver:  Solving for Uz, Initial residual = 0.04219631163457901, Final residual = 0.003895857878620883, No Iterations 12
[INFO] MomentumPredictor: 1319.575 [ms]
[INFO] MatrixAssemblyPI: 261.589 [ms]
[INFO] MatrixAssemblyPII: 130.128 [ms]
DICPCG:  Solving for p, Initial residual = 0.04216826374126294, Final residual = 0.0004199275718598341, No Iterations 121
[INFO] SolveP: 4483.758 [ms]
time step continuity errors : sum local = 0.0036698844955631, global = 8.03211852837964e-06, cumulative = -0.0004716694222781589
[INFO] postSolveP: 70.08 [ms]
smoothSolver:  Solving for nuTilda, Initial residual = 0.02150437251072521, Final residual = 0.001956450098457264, No Iterations 3
[INFO] TimeStep: 8873.387000000001 [ms]
ExecutionTime = 304.84 s  ClockTime = 306 s

Time = 26

velocityDampingConstraint velocityDamping damped 0 (0%) of cells, with max limit 300
[INFO] MatrixAssemblyU: 1608.244 [ms]
smoothSolver:  Solving for Ux, Initial residual = 0.01039826834184521, Final residual = 0.001037456467884467, No Iterations 12
smoothSolver:  Solving for Uy, Initial residual = 0.04359298003411986, Final residual = 0.004275129267390406, No Iterations 12
smoothSolver:  Solving for Uz, Initial residual = 0.04223801604525697, Final residual = 0.003940736095240798, No Iterations 12
[INFO] MomentumPredictor: 1286.342 [ms]
[INFO] MatrixAssemblyPI: 261.002 [ms]
[INFO] MatrixAssemblyPII: 129.738 [ms]
DICPCG:  Solving for p, Initial residual = 0.04186384243531667, Final residual = 0.0004138350101257372, No Iterations 117
[INFO] SolveP: 4375.955 [ms]
time step continuity errors : sum local = 0.003658434705034265, global = 8.292965953551072e-05, cumulative = -0.0003887397627426482
[INFO] postSolveP: 69.47499999999999 [ms]
smoothSolver:  Solving for nuTilda, Initial residual = 0.03148819157809568, Final residual = 0.001803714961667852, No Iterations 3
[INFO] TimeStep: 8730.263000000001 [ms]
ExecutionTime = 314.82 s  ClockTime = 316 s

Time = 27

velocityDampingConstraint velocityDamping damped 0 (0%) of cells, with max limit 300
[INFO] MatrixAssemblyU: 1606.76 [ms]
smoothSolver:  Solving for Ux, Initial residual = 0.010410099365423, Final residual = 0.001038962990685483, No Iterations 12
smoothSolver:  Solving for Uy, Initial residual = 0.0446415566103077, Final residual = 0.004443264707832665, No Iterations 12
smoothSolver:  Solving for Uz, Initial residual = 0.04254964520287761, Final residual = 0.004019049115904515, No Iterations 12
[INFO] MomentumPredictor: 1287.01 [ms]
[INFO] MatrixAssemblyPI: 261.852 [ms]
[INFO] MatrixAssemblyPII: 129.963 [ms]
DICPCG:  Solving for p, Initial residual = 0.04222444982038023, Final residual = 0.0004155191485862058, No Iterations 114
[INFO] SolveP: 4225.493 [ms]
time step continuity errors : sum local = 0.003710665874113677, global = 0.0002425673106426546, cumulative = -0.0001461724520999936
[INFO] postSolveP: 69.295 [ms]
smoothSolver:  Solving for nuTilda, Initial residual = 0.01982244912790371, Final residual = 0.001831252766813809, No Iterations 3
[INFO] TimeStep: 8580.576999999999 [ms]
ExecutionTime = 324.65 s  ClockTime = 326 s

Time = 28

velocityDampingConstraint velocityDamping damped 0 (0%) of cells, with max limit 300
[INFO] MatrixAssemblyU: 1608.897 [ms]
smoothSolver:  Solving for Ux, Initial residual = 0.01055450725525722, Final residual = 0.001042258266811996, No Iterations 12
smoothSolver:  Solving for Uy, Initial residual = 0.04599674429001992, Final residual = 0.003943540858686905, No Iterations 13
smoothSolver:  Solving for Uz, Initial residual = 0.043549559497331, Final residual = 0.004131148535178926, No Iterations 12
[INFO] MomentumPredictor: 1311.507 [ms]
[INFO] MatrixAssemblyPI: 260.621 [ms]
[INFO] MatrixAssemblyPII: 130.259 [ms]
DICPCG:  Solving for p, Initial residual = 0.04322217621765016, Final residual = 0.0004252135920697931, No Iterations 107
[INFO] SolveP: 4014.514 [ms]
time step continuity errors : sum local = 0.003841431328509248, global = 0.0004325161759004808, cumulative = 0.0002863437238004872
[INFO] postSolveP: 69.524 [ms]
smoothSolver:  Solving for nuTilda, Initial residual = 0.02895499219147842, Final residual = 0.001697037465756683, No Iterations 3
[INFO] TimeStep: 8394.213 [ms]
ExecutionTime = 334.3 s  ClockTime = 336 s

Time = 29

velocityDampingConstraint velocityDamping damped 0 (0%) of cells, with max limit 300
[INFO] MatrixAssemblyU: 1608.052 [ms]
smoothSolver:  Solving for Ux, Initial residual = 0.01059214156677676, Final residual = 0.001043727707379499, No Iterations 12
smoothSolver:  Solving for Uy, Initial residual = 0.0475533431141581, Final residual = 0.004081631990940492, No Iterations 13
smoothSolver:  Solving for Uz, Initial residual = 0.04497740310840759, Final residual = 0.004274368505694989, No Iterations 12
[INFO] MomentumPredictor: 1319.131 [ms]
[INFO] MatrixAssemblyPI: 261.987 [ms]
[INFO] MatrixAssemblyPII: 129.634 [ms]
DICPCG:  Solving for p, Initial residual = 0.0441496514736977, Final residual = 0.0004376816781959963, No Iterations 107
[INFO] SolveP: 3974.817 [ms]
time step continuity errors : sum local = 0.003999211578109132, global = 0.0006269254627062609, cumulative = 0.0009132691865067481
[INFO] postSolveP: 69.14 [ms]
smoothSolver:  Solving for nuTilda, Initial residual = 0.0183412361560015, Final residual = 0.001707961283335507, No Iterations 3
[INFO] TimeStep: 8362.236999999999 [ms]
ExecutionTime = 343.91 s  ClockTime = 346 s

Time = 30

velocityDampingConstraint velocityDamping damped 0 (0%) of cells, with max limit 300
[INFO] MatrixAssemblyU: 1606.661 [ms]
smoothSolver:  Solving for Ux, Initial residual = 0.0107889147132869, Final residual = 0.001049392311181114, No Iterations 12
smoothSolver:  Solving for Uy, Initial residual = 0.0496474083987702, Final residual = 0.004231332705018652, No Iterations 13
smoothSolver:  Solving for Uz, Initial residual = 0.04658485544442491, Final residual = 0.004411246701429059, No Iterations 12
[INFO] MomentumPredictor: 1316.157 [ms]
[INFO] MatrixAssemblyPI: 260.188 [ms]
[INFO] MatrixAssemblyPII: 129.856 [ms]
DICPCG:  Solving for p, Initial residual = 0.04505672951572842, Final residual = 0.0004402703992355603, No Iterations 100
[INFO] SolveP: 3753.984 [ms]
time step continuity errors : sum local = 0.004080082745500657, global = 0.0008027608980547327, cumulative = 0.001716030084561481
[INFO] postSolveP: 69.25 [ms]
smoothSolver:  Solving for nuTilda, Initial residual = 0.02676518949132845, Final residual = 0.001589858081608363, No Iterations 3
[INFO] TimeStep: 8134.349 [ms]
ExecutionTime = 353.3 s  ClockTime = 355 s

Time = 31

velocityDampingConstraint velocityDamping damped 0 (0%) of cells, with max limit 300
[INFO] MatrixAssemblyU: 1604.562 [ms]
smoothSolver:  Solving for Ux, Initial residual = 0.01085245573585788, Final residual = 0.001055516010571334, No Iterations 12
smoothSolver:  Solving for Uy, Initial residual = 0.05196265885506539, Final residual = 0.005175287314802933, No Iterations 12
smoothSolver:  Solving for Uz, Initial residual = 0.04826895110357182, Final residual = 0.004569775575158894, No Iterations 12
[INFO] MomentumPredictor: 1285.839 [ms]
[INFO] MatrixAssemblyPI: 262.209 [ms]
[INFO] MatrixAssemblyPII: 130.044 [ms]
DICPCG:  Solving for p, Initial residual = 0.04628392767964044, Final residual = 0.0004609924443063395, No Iterations 99
[INFO] SolveP: 3686.883 [ms]
time step continuity errors : sum local = 0.004326552410187468, global = 0.0009309671703814827, cumulative = 0.002646997254942963
[INFO] postSolveP: 69.95099999999999 [ms]
smoothSolver:  Solving for nuTilda, Initial residual = 0.01707577393579937, Final residual = 0.001589527869556791, No Iterations 3
[INFO] TimeStep: 8037.781 [ms]
ExecutionTime = 362.59 s  ClockTime = 364 s

Time = 32

velocityDampingConstraint velocityDamping damped 0 (0%) of cells, with max limit 300
[INFO] MatrixAssemblyU: 1605.194 [ms]
smoothSolver:  Solving for Ux, Initial residual = 0.01096935460476757, Final residual = 0.001062309910917233, No Iterations 12
smoothSolver:  Solving for Uy, Initial residual = 0.05436476663588685, Final residual = 0.005413441271104624, No Iterations 12
smoothSolver:  Solving for Uz, Initial residual = 0.04983580178173909, Final residual = 0.004773393133832128, No Iterations 12
[INFO] MomentumPredictor: 1282.817 [ms]
[INFO] MatrixAssemblyPI: 260.751 [ms]
[INFO] MatrixAssemblyPII: 129.729 [ms]
DICPCG:  Solving for p, Initial residual = 0.04782656416989373, Final residual = 0.0004760117093866855, No Iterations 100
[INFO] SolveP: 3751.176 [ms]
time step continuity errors : sum local = 0.004523600101214244, global = 0.0009722759365448878, cumulative = 0.003619273191487851
[INFO] postSolveP: 69.20699999999999 [ms]
smoothSolver:  Solving for nuTilda, Initial residual = 0.02486119767923275, Final residual = 0.00148779076626915, No Iterations 3
[INFO] TimeStep: 8097.146 [ms]
ExecutionTime = 371.93 s  ClockTime = 374 s

Time = 33

velocityDampingConstraint velocityDamping damped 0 (0%) of cells, with max limit 300
[INFO] MatrixAssemblyU: 1601.57 [ms]
smoothSolver:  Solving for Ux, Initial residual = 0.01091848001307331, Final residual = 0.001068499613037714, No Iterations 12
smoothSolver:  Solving for Uy, Initial residual = 0.05666511106461739, Final residual = 0.005636175713228954, No Iterations 12
smoothSolver:  Solving for Uz, Initial residual = 0.05197972985183025, Final residual = 0.005044025389465264, No Iterations 12
[INFO] MomentumPredictor: 1290.827 [ms]
[INFO] MatrixAssemblyPI: 261.027 [ms]
[INFO] MatrixAssemblyPII: 129.585 [ms]
DICPCG:  Solving for p, Initial residual = 0.0496459063372312, Final residual = 0.0004924392261454132, No Iterations 98
[INFO] SolveP: 3636.974 [ms]
time step continuity errors : sum local = 0.004734862576673255, global = 0.0009591045862046813, cumulative = 0.004578377777692533
[INFO] postSolveP: 69.642 [ms]
smoothSolver:  Solving for nuTilda, Initial residual = 0.01598498311893554, Final residual = 0.001480313748188686, No Iterations 3
[INFO] TimeStep: 7987.562 [ms]
ExecutionTime = 381.17 s  ClockTime = 383 s

Time = 34

velocityDampingConstraint velocityDamping damped 0 (0%) of cells, with max limit 300
[INFO] MatrixAssemblyU: 1603.086 [ms]
smoothSolver:  Solving for Ux, Initial residual = 0.01103314255144816, Final residual = 0.001078625530830403, No Iterations 12
smoothSolver:  Solving for Uy, Initial residual = 0.05915317505820822, Final residual = 0.005885440686714701, No Iterations 12
smoothSolver:  Solving for Uz, Initial residual = 0.05448477705393186, Final residual = 0.005336931302143812, No Iterations 12
[INFO] MomentumPredictor: 1284.879 [ms]
[INFO] MatrixAssemblyPI: 261.198 [ms]
[INFO] MatrixAssemblyPII: 129.67 [ms]
DICPCG:  Solving for p, Initial residual = 0.05177684111711282, Final residual = 0.0005166363501824148, No Iterations 95
[INFO] SolveP: 3566.107 [ms]
time step continuity errors : sum local = 0.005024313317299509, global = 0.000884227828400396, cumulative = 0.005462605606092928
[INFO] postSolveP: 69.093 [ms]
smoothSolver:  Solving for nuTilda, Initial residual = 0.02321857891081201, Final residual = 0.001393882724714555, No Iterations 3
[INFO] TimeStep: 7911.877 [ms]
ExecutionTime = 390.32 s  ClockTime = 392 s

Time = 35

velocityDampingConstraint velocityDamping damped 0 (0%) of cells, with max limit 300
[INFO] MatrixAssemblyU: 1598.954 [ms]
smoothSolver:  Solving for Ux, Initial residual = 0.01109092984190469, Final residual = 0.001091727954672098, No Iterations 12
smoothSolver:  Solving for Uy, Initial residual = 0.0617018649347487, Final residual = 0.005254049631018423, No Iterations 13
smoothSolver:  Solving for Uz, Initial residual = 0.05700708357878846, Final residual = 0.005608014671007474, No Iterations 12
[INFO] MomentumPredictor: 1312.754 [ms]
[INFO] MatrixAssemblyPI: 260.818 [ms]
[INFO] MatrixAssemblyPII: 129.839 [ms]
DICPCG:  Solving for p, Initial residual = 0.05359246028035754, Final residual = 0.0005242508983084737, No Iterations 94
[INFO] SolveP: 3495.375 [ms]
time step continuity errors : sum local = 0.005155274838598172, global = 0.0007564760021211427, cumulative = 0.006219081608214071
[INFO] postSolveP: 69.508 [ms]
smoothSolver:  Solving for nuTilda, Initial residual = 0.01501718622794131, Final residual = 0.00138288334319731, No Iterations 3
[INFO] TimeStep: 7864.61 [ms]
ExecutionTime = 399.43 s  ClockTime = 401 s

Time = 36

velocityDampingConstraint velocityDamping damped 0 (0%) of cells, with max limit 300
[INFO] MatrixAssemblyU: 1597.629 [ms]
smoothSolver:  Solving for Ux, Initial residual = 0.01136410483610775, Final residual = 0.001113909031173692, No Iterations 12
smoothSolver:  Solving for Uy, Initial residual = 0.06370883019769989, Final residual = 0.005510746373293427, No Iterations 13
smoothSolver:  Solving for Uz, Initial residual = 0.05964886015043572, Final residual = 0.005871304541296539, No Iterations 12
[INFO] MomentumPredictor: 1310.967 [ms]
[INFO] MatrixAssemblyPI: 260.934 [ms]
[INFO] MatrixAssemblyPII: 130.255 [ms]
DICPCG:  Solving for p, Initial residual = 0.05496553356538606, Final residual = 0.0005414692714557261, No Iterations 93
[INFO] SolveP: 3489.873 [ms]
time step continuity errors : sum local = 0.005372022810521971, global = 0.000578130431988219, cumulative = 0.00679721204020229
[INFO] postSolveP: 69.17700000000001 [ms]
smoothSolver:  Solving for nuTilda, Initial residual = 0.0218068047536342, Final residual = 0.001308021544499239, No Iterations 3
[INFO] TimeStep: 7854.812 [ms]
ExecutionTime = 408.53 s  ClockTime = 411 s

Time = 37

velocityDampingConstraint velocityDamping damped 0 (0%) of cells, with max limit 300
[INFO] MatrixAssemblyU: 1598.518 [ms]
smoothSolver:  Solving for Ux, Initial residual = 0.01157815034491642, Final residual = 0.001139723650016685, No Iterations 12
smoothSolver:  Solving for Uy, Initial residual = 0.06552470262209181, Final residual = 0.005750432847593118, No Iterations 13
smoothSolver:  Solving for Uz, Initial residual = 0.06223666414198045, Final residual = 0.006090113340301387, No Iterations 12
[INFO] MomentumPredictor: 1321.053 [ms]
[INFO] MatrixAssemblyPI: 260.448 [ms]
[INFO] MatrixAssemblyPII: 129.614 [ms]
DICPCG:  Solving for p, Initial residual = 0.0567518196601834, Final residual = 0.0005473743349532035, No Iterations 90
[INFO] SolveP: 3343.982 [ms]
time step continuity errors : sum local = 0.005475072605693495, global = 0.000381327690216898, cumulative = 0.007178539730419188
[INFO] postSolveP: 69.508 [ms]
smoothSolver:  Solving for nuTilda, Initial residual = 0.01420315641005446, Final residual = 0.001295804674586738, No Iterations 3
[INFO] TimeStep: 7721.238 [ms]
ExecutionTime = 417.51 s  ClockTime = 420 s

Time = 38

velocityDampingConstraint velocityDamping damped 0 (0%) of cells, with max limit 300
[INFO] MatrixAssemblyU: 1598.211 [ms]
smoothSolver:  Solving for Ux, Initial residual = 0.01189427382292024, Final residual = 0.001162411795495892, No Iterations 12
smoothSolver:  Solving for Uy, Initial residual = 0.06707102577472869, Final residual = 0.005932230454856379, No Iterations 13
smoothSolver:  Solving for Uz, Initial residual = 0.06495623168397466, Final residual = 0.00628492514498548, No Iterations 12
[INFO] MomentumPredictor: 1314.525 [ms]
[INFO] MatrixAssemblyPI: 260.972 [ms]
[INFO] MatrixAssemblyPII: 130.069 [ms]
DICPCG:  Solving for p, Initial residual = 0.05744238165102275, Final residual = 0.0005587819027510605, No Iterations 89
[INFO] SolveP: 3344.015 [ms]
time step continuity errors : sum local = 0.005621094835105916, global = 0.000166375999156682, cumulative = 0.00734491572957587
[INFO] postSolveP: 69.146 [ms]
smoothSolver:  Solving for nuTilda, Initial residual = 0.0205800535753799, Final residual = 0.00123216785977184, No Iterations 3
[INFO] TimeStep: 7712.356 [ms]
ExecutionTime = 426.45 s  ClockTime = 429 s

Time = 39

velocityDampingConstraint velocityDamping damped 0 (0%) of cells, with max limit 300
[INFO] MatrixAssemblyU: 1595.786 [ms]
smoothSolver:  Solving for Ux, Initial residual = 0.01198675340980241, Final residual = 0.001175033843331478, No Iterations 12
smoothSolver:  Solving for Uy, Initial residual = 0.06855930462682371, Final residual = 0.006101656526730073, No Iterations 13
smoothSolver:  Solving for Uz, Initial residual = 0.06743561172405471, Final residual = 0.006501183355846696, No Iterations 12
[INFO] MomentumPredictor: 1316.023 [ms]
[INFO] MatrixAssemblyPI: 260.194 [ms]
[INFO] MatrixAssemblyPII: 129.362 [ms]
DICPCG:  Solving for p, Initial residual = 0.05748741414319261, Final residual = 0.0005488482454026664, No Iterations 89
[INFO] SolveP: 3306.152 [ms]
time step continuity errors : sum local = 0.005544592136620715, global = -5.634410921415242e-05, cumulative = 0.007288571620361717
[INFO] postSolveP: 69.06699999999999 [ms]
smoothSolver:  Solving for nuTilda, Initial residual = 0.01354251712145588, Final residual = 0.001221683204840016, No Iterations 3
[INFO] TimeStep: 7670.508 [ms]
ExecutionTime = 435.36 s  ClockTime = 437 s

Time = 40

velocityDampingConstraint velocityDamping damped 0 (0%) of cells, with max limit 300
[INFO] MatrixAssemblyU: 1593.915 [ms]
smoothSolver:  Solving for Ux, Initial residual = 0.01212632197426676, Final residual = 0.001185771355042284, No Iterations 12
smoothSolver:  Solving for Uy, Initial residual = 0.06975604708239048, Final residual = 0.006265757610762598, No Iterations 13
smoothSolver:  Solving for Uz, Initial residual = 0.06925737427683118, Final residual = 0.006735076566569398, No Iterations 12
[INFO] MomentumPredictor: 1310.322 [ms]
[INFO] MatrixAssemblyPI: 261.496 [ms]
[INFO] MatrixAssemblyPII: 130.204 [ms]
DICPCG:  Solving for p, Initial residual = 0.05763910348357462, Final residual = 0.0005713706476206417, No Iterations 85
[INFO] SolveP: 3200.362 [ms]
time step continuity errors : sum local = 0.005781608346810168, global = -0.0002724185774501768, cumulative = 0.00701615304291154
[INFO] postSolveP: 69.48999999999999 [ms]
smoothSolver:  Solving for nuTilda, Initial residual = 0.01947468650745867, Final residual = 0.001168405199490118, No Iterations 3
[INFO] TimeStep: 7560.515 [ms]
ExecutionTime = 444.18 s  ClockTime = 446 s

Time = 41

velocityDampingConstraint velocityDamping damped 0 (0%) of cells, with max limit 300
[INFO] MatrixAssemblyU: 1592.853 [ms]
smoothSolver:  Solving for Ux, Initial residual = 0.01206326762885825, Final residual = 0.001194930968841287, No Iterations 12
smoothSolver:  Solving for Uy, Initial residual = 0.07043255118212484, Final residual = 0.006427438213186252, No Iterations 13
smoothSolver:  Solving for Uz, Initial residual = 0.07037885564211628, Final residual = 0.006930414137097936, No Iterations 12
[INFO] MomentumPredictor: 1320.778 [ms]
[INFO] MatrixAssemblyPI: 260.748 [ms]
[INFO] MatrixAssemblyPII: 129.826 [ms]
DICPCG:  Solving for p, Initial residual = 0.05724550615389938, Final residual = 0.0005719303271977801, No Iterations 84
[INFO] SolveP: 3151.232 [ms]
time step continuity errors : sum local = 0.005789633821200683, global = -0.0004661304903908061, cumulative = 0.006550022552520734
[INFO] postSolveP: 69.40600000000001 [ms]
smoothSolver:  Solving for nuTilda, Initial residual = 0.01295206467040558, Final residual = 0.001159808992713224, No Iterations 3
[INFO] TimeStep: 7518.234 [ms]
ExecutionTime = 452.93 s  ClockTime = 455 s

Time = 42

velocityDampingConstraint velocityDamping damped 0 (0%) of cells, with max limit 300
[INFO] MatrixAssemblyU: 1593.728 [ms]
smoothSolver:  Solving for Ux, Initial residual = 0.01210015568896801, Final residual = 0.00120183313759141, No Iterations 12
smoothSolver:  Solving for Uy, Initial residual = 0.07098064579603226, Final residual = 0.006617005531102756, No Iterations 13
smoothSolver:  Solving for Uz, Initial residual = 0.07093367884615846, Final residual = 0.006038122581890766, No Iterations 13
[INFO] MomentumPredictor: 1343.091 [ms]
[INFO] MatrixAssemblyPI: 262.053 [ms]
[INFO] MatrixAssemblyPII: 129.366 [ms]
DICPCG:  Solving for p, Initial residual = 0.05690781475471829, Final residual = 0.0005578985272098875, No Iterations 84
[INFO] SolveP: 3160.599 [ms]
time step continuity errors : sum local = 0.005643084699331926, global = -0.0006590568619609422, cumulative = 0.005890965690559791
[INFO] postSolveP: 69.236 [ms]
smoothSolver:  Solving for nuTilda, Initial residual = 0.01846668256087472, Final residual = 0.001113234636703522, No Iterations 3
[INFO] TimeStep: 7551.386 [ms]
ExecutionTime = 461.72 s  ClockTime = 464 s

Time = 43

velocityDampingConstraint velocityDamping damped 0 (0%) of cells, with max limit 300
[INFO] MatrixAssemblyU: 1590.763 [ms]
smoothSolver:  Solving for Ux, Initial residual = 0.01200389389667303, Final residual = 0.001029702647729084, No Iterations 13
smoothSolver:  Solving for Uy, Initial residual = 0.07170019106925556, Final residual = 0.006836868891963512, No Iterations 13
smoothSolver:  Solving for Uz, Initial residual = 0.07058356353593734, Final residual = 0.006119951785413141, No Iterations 13
[INFO] MomentumPredictor: 1373.056 [ms]
[INFO] MatrixAssemblyPI: 261.192 [ms]
[INFO] MatrixAssemblyPII: 129.917 [ms]
DICPCG:  Solving for p, Initial residual = 0.05624805740198616, Final residual = 0.0005607272539651133, No Iterations 85
[INFO] SolveP: 3168.491 [ms]
time step continuity errors : sum local = 0.005653705461725562, global = -0.0008572869420227235, cumulative = 0.005033678748537068
[INFO] postSolveP: 68.98 [ms]
smoothSolver:  Solving for nuTilda, Initial residual = 0.01236321419478876, Final residual = 0.00110357004735578, No Iterations 3
[INFO] TimeStep: 7587.672 [ms]
ExecutionTime = 470.55 s  ClockTime = 473 s

Time = 44

velocityDampingConstraint velocityDamping damped 0 (0%) of cells, with max limit 300
[INFO] MatrixAssemblyU: 1589.582 [ms]
smoothSolver:  Solving for Ux, Initial residual = 0.01201972535806576, Final residual = 0.001038334255165187, No Iterations 13
smoothSolver:  Solving for Uy, Initial residual = 0.07220077396428035, Final residual = 0.007042734352912881, No Iterations 13
smoothSolver:  Solving for Uz, Initial residual = 0.06994030489999431, Final residual = 0.006188877666258948, No Iterations 13
[INFO] MomentumPredictor: 1368.891 [ms]
[INFO] MatrixAssemblyPI: 260.825 [ms]
[INFO] MatrixAssemblyPII: 129.805 [ms]
DICPCG:  Solving for p, Initial residual = 0.05552023505206811, Final residual = 0.0005502868307256791, No Iterations 106
[INFO] SolveP: 3966.383 [ms]
time step continuity errors : sum local = 0.005504864072141013, global = -0.001039961725192594, cumulative = 0.003993717023344474
[INFO] postSolveP: 70.023 [ms]
smoothSolver:  Solving for nuTilda, Initial residual = 0.01752295435270054, Final residual = 0.001060947794134988, No Iterations 3
[INFO] TimeStep: 8378.977999999999 [ms]
ExecutionTime = 480.16 s  ClockTime = 482 s

Time = 45

velocityDampingConstraint velocityDamping damped 0 (0%) of cells, with max limit 300
[INFO] MatrixAssemblyU: 1587.556 [ms]
smoothSolver:  Solving for Ux, Initial residual = 0.01188859860990814, Final residual = 0.001047665287306852, No Iterations 13
smoothSolver:  Solving for Uy, Initial residual = 0.07233055454974169, Final residual = 0.007179659603838122, No Iterations 13
smoothSolver:  Solving for Uz, Initial residual = 0.06919923648003769, Final residual = 0.00625404686381379, No Iterations 13
[INFO] MomentumPredictor: 1379.621 [ms]
[INFO] MatrixAssemblyPI: 261.455 [ms]
[INFO] MatrixAssemblyPII: 129.389 [ms]
DICPCG:  Solving for p, Initial residual = 0.05514080596041713, Final residual = 0.0005471493194523218, No Iterations 87
[INFO] SolveP: 3237.74 [ms]
time step continuity errors : sum local = 0.005398440586764659, global = -0.00119366939621962, cumulative = 0.002800047627124854
[INFO] postSolveP: 69.188 [ms]
smoothSolver:  Solving for nuTilda, Initial residual = 0.0118020078345287, Final residual = 0.001049856810088444, No Iterations 3
[INFO] TimeStep: 7656.061 [ms]
ExecutionTime = 489.06 s  ClockTime = 491 s

Time = 46

velocityDampingConstraint velocityDamping damped 0 (0%) of cells, with max limit 300
[INFO] MatrixAssemblyU: 1588.778 [ms]
smoothSolver:  Solving for Ux, Initial residual = 0.01175965582832668, Final residual = 0.00105039242724662, No Iterations 13
smoothSolver:  Solving for Uy, Initial residual = 0.07209830621103558, Final residual = 0.006161088380904875, No Iterations 14
smoothSolver:  Solving for Uz, Initial residual = 0.06790841801353324, Final residual = 0.006295956865059419, No Iterations 13
[INFO] MomentumPredictor: 1402.008 [ms]
[INFO] MatrixAssemblyPI: 260.785 [ms]
[INFO] MatrixAssemblyPII: 129.96 [ms]
DICPCG:  Solving for p, Initial residual = 0.05453246470563649, Final residual = 0.0005270272562402583, No Iterations 218
[INFO] SolveP: 8115.6 [ms]
time step continuity errors : sum local = 0.005149420410924003, global = -0.0003005630840699057, cumulative = 0.002499484543054948
[INFO] postSolveP: 69.098 [ms]
smoothSolver:  Solving for nuTilda, Initial residual = 0.01664242905138301, Final residual = 0.00101253055361454, No Iterations 3
[INFO] TimeStep: 12558.14 [ms]
ExecutionTime = 502.82 s  ClockTime = 505 s

Time = 47

velocityDampingConstraint velocityDamping damped 0 (0%) of cells, with max limit 300
[INFO] MatrixAssemblyU: 1588.831 [ms]
smoothSolver:  Solving for Ux, Initial residual = 0.01172534739621298, Final residual = 0.001057641948767409, No Iterations 13
smoothSolver:  Solving for Uy, Initial residual = 0.0721141156279622, Final residual = 0.006165928857808076, No Iterations 14
smoothSolver:  Solving for Uz, Initial residual = 0.06703237159549337, Final residual = 0.006354582553463575, No Iterations 13
[INFO] MomentumPredictor: 1402.651 [ms]
[INFO] MatrixAssemblyPI: 261.126 [ms]
[INFO] MatrixAssemblyPII: 129.472 [ms]
DICPCG:  Solving for p, Initial residual = 0.05584698719639154, Final residual = 0.0005571396197539128, No Iterations 85
[INFO] SolveP: 3165.304 [ms]
time step continuity errors : sum local = 0.005204138711563374, global = 0.0006180346647169057, cumulative = 0.003117519207771854
[INFO] postSolveP: 69.556 [ms]
smoothSolver:  Solving for nuTilda, Initial residual = 0.0112842630372939, Final residual = 0.001002950288887102, No Iterations 3
[INFO] TimeStep: 7607.613 [ms]
ExecutionTime = 511.67 s  ClockTime = 514 s

Time = 48

velocityDampingConstraint velocityDamping damped 0 (0%) of cells, with max limit 300
[INFO] MatrixAssemblyU: 1589.893 [ms]
smoothSolver:  Solving for Ux, Initial residual = 0.01164100336871297, Final residual = 0.001062692379091236, No Iterations 13
smoothSolver:  Solving for Uy, Initial residual = 0.07128289897982271, Final residual = 0.006135429238170353, No Iterations 14
smoothSolver:  Solving for Uz, Initial residual = 0.06558132632221195, Final residual = 0.006333528817488442, No Iterations 13
[INFO] MomentumPredictor: 1398.33 [ms]
[INFO] MatrixAssemblyPI: 262.516 [ms]
[INFO] MatrixAssemblyPII: 129.94 [ms]
DICPCG:  Solving for p, Initial residual = 0.05477977065516947, Final residual = 0.0005449950486032646, No Iterations 134
[INFO] SolveP: 5001.621 [ms]
time step continuity errors : sum local = 0.005070126445299296, global = 0.001005071287437732, cumulative = 0.004122590495209585
[INFO] postSolveP: 69.024 [ms]
smoothSolver:  Solving for nuTilda, Initial residual = 0.01586067981753076, Final residual = 0.0009716346096932623, No Iterations 3
[INFO] TimeStep: 9443.349 [ms]
ExecutionTime = 522.34 s  ClockTime = 525 s

Time = 49

velocityDampingConstraint velocityDamping damped 0 (0%) of cells, with max limit 300
[INFO] MatrixAssemblyU: 1584.416 [ms]
smoothSolver:  Solving for Ux, Initial residual = 0.01149903367564001, Final residual = 0.001068032055411368, No Iterations 13
smoothSolver:  Solving for Uy, Initial residual = 0.07080317083252956, Final residual = 0.006138586718387472, No Iterations 14
smoothSolver:  Solving for Uz, Initial residual = 0.06470134692242976, Final residual = 0.006335899916581566, No Iterations 13
[INFO] MomentumPredictor: 1407.613 [ms]
[INFO] MatrixAssemblyPI: 261.454 [ms]
[INFO] MatrixAssemblyPII: 130.059 [ms]
DICPCG:  Solving for p, Initial residual = 0.05362365607759679, Final residual = 0.0005317725314900976, No Iterations 92
[INFO] SolveP: 3419.138 [ms]
time step continuity errors : sum local = 0.00498244966351035, global = 0.001230070670297441, cumulative = 0.005352661165507026
[INFO] postSolveP: 69.371 [ms]
smoothSolver:  Solving for nuTilda, Initial residual = 0.01085199632950401, Final residual = 0.0009655310381308569, No Iterations 3
[INFO] TimeStep: 7862.926 [ms]
ExecutionTime = 531.4299999999999 s  ClockTime = 534 s

Time = 50

velocityDampingConstraint velocityDamping damped 0 (0%) of cells, with max limit 300
[INFO] MatrixAssemblyU: 1583.904 [ms]
smoothSolver:  Solving for Ux, Initial residual = 0.01147012315995946, Final residual = 0.001068417759252763, No Iterations 13
smoothSolver:  Solving for Uy, Initial residual = 0.06955563728222565, Final residual = 0.006045355668613582, No Iterations 14
smoothSolver:  Solving for Uz, Initial residual = 0.06368796874038794, Final residual = 0.006289066601644512, No Iterations 13
[INFO] MomentumPredictor: 1403.717 [ms]
[INFO] MatrixAssemblyPI: 261.461 [ms]
[INFO] MatrixAssemblyPII: 130.326 [ms]
DICPCG:  Solving for p, Initial residual = 0.05321211538853449, Final residual = 0.0005258293757299603, No Iterations 219
[INFO] SolveP: 8154.618 [ms]
time step continuity errors : sum local = 0.004913335645518152, global = 1.857771966107821e-05, cumulative = 0.005371238885168104
[INFO] postSolveP: 69.176 [ms]
smoothSolver:  Solving for nuTilda, Initial residual = 0.01517992526017325, Final residual = 0.000939531579203914, No Iterations 3
[INFO] TimeStep: 12594.704 [ms]
ExecutionTime = 545.25 s  ClockTime = 548 s

End

Finalising parallel run
