/*---------------------------------------------------------------------------*\
| =========                 |                                                 |
| \\      /  F ield         | OpenFOAM: The Open Source CFD Toolbox           |
|  \\    /   O peration     | Version:  2306                                  |
|   \\  /    A nd           | Website:  www.openfoam.com                      |
|    \\/     M anipulation  |                                                 |
\*---------------------------------------------------------------------------*/
Build  : c423ebec-20231012 OPENFOAM=2306 version=v2306
Arch   : "LSB;label=32;scalar=64"
Exec   : decomposePar -force
Date   : Feb 16 2024
Time   : 09:04:19
Host   : hkn0049.localdomain
PID    : 3744534
--> FOAM Warning : 
    From Foam::fileName Foam::cwd_L()
    in file POSIX.C at line 552
    PWD is not the cwd() - reverting to physical description
I/O    : uncollated
--> FOAM Warning : 
    From Foam::fileName Foam::cwd_L()
    in file POSIX.C at line 552
    PWD is not the cwd() - reverting to physical description
Case   : /hkfs/work/workspace/scratch/eq4036-windsorbody_setup/workspace/216d1f64af6d0abfd0f76e965fda7c21/case
nProcs : 1
trapFpe: Floating point exception trapping enabled (FOAM_SIGFPE).
fileModificationChecking : Monitoring run-time modified files using timeStampMaster (fileModificationSkew 5, maxFileModificationPolls 20)
allowSystemOperations : Allowing user-supplied system call operations

// * * * * * * * * * * * * * * * * * * * * * * * * * * * * * * * * * * * * * //
Create time

--> FOAM Warning : 
    From void* Foam::dlLibraryTable::openLibrary(const Foam::fileName&, bool)
    in file db/dynamicLibrary/dlLibraryTable/dlLibraryTable.C at line 188
    Could not load "libpetscFoam.so"
libpetscFoam.so: cannot open shared object file: No such file or directory


Decomposing mesh

Create mesh

Calculating distribution of cells
Decomposition method simple [160] (region region0)

Finished decomposition in 7.94 s

Calculating original mesh data

Distributing cells to processors

Distributing faces to processors

Distributing points to processors

Constructing processor meshes

Processor 0
    Number of cells = 106737
    Number of points = 114849
    Number of faces shared with processor 1 = 2198
    Number of faces shared with processor 20 = 2036
    Number of faces shared with processor 21 = 2
    Number of faces shared with processor 80 = 3375
    Number of processor patches = 4
    Number of processor faces = 7611
    Number of boundary faces = 7977

Processor 1
    Number of cells = 92738
    Number of points = 99736
    Number of faces shared with processor 0 = 2198
    Number of faces shared with processor 2 = 2179
    Number of faces shared with processor 21 = 1157
    Number of faces shared with processor 81 = 1373
    Number of faces shared with processor 82 = 14
    Number of processor patches = 5
    Number of processor faces = 6921
    Number of boundary faces = 7119

Processor 2
    Number of cells = 91136
    Number of points = 98699
    Number of faces shared with processor 1 = 2179
    Number of faces shared with processor 3 = 2270
    Number of faces shared with processor 22 = 989
    Number of faces shared with processor 82 = 1163
    Number of processor patches = 4
    Number of processor faces = 6601
    Number of boundary faces = 7310

Processor 3
    Number of cells = 92816
    Number of points = 100415
    Number of faces shared with processor 2 = 2270
    Number of faces shared with processor 4 = 2273
    Number of faces shared with processor 23 = 1012
    Number of faces shared with processor 82 = 1
    Number of faces shared with processor 83 = 1220
    Number of processor patches = 5
    Number of processor faces = 6776
    Number of boundary faces = 7427

Processor 4
    Number of cells = 90379
    Number of points = 97962
    Number of faces shared with processor 3 = 2273
    Number of faces shared with processor 5 = 2235
    Number of faces shared with processor 24 = 1104
    Number of faces shared with processor 83 = 1
    Number of faces shared with processor 84 = 1318
    Number of processor patches = 5
    Number of processor faces = 6931
    Number of boundary faces = 7062

Processor 5
    Number of cells = 69937
    Number of points = 76091
    Number of faces shared with processor 4 = 2235
    Number of faces shared with processor 6 = 2492
    Number of faces shared with processor 25 = 952
    Number of faces shared with processor 84 = 1
    Number of faces shared with processor 85 = 1809
    Number of processor patches = 5
    Number of processor faces = 7489
    Number of boundary faces = 4620

Processor 6
    Number of cells = 61435
    Number of points = 66680
    Number of faces shared with processor 5 = 2492
    Number of faces shared with processor 7 = 2472
    Number of faces shared with processor 26 = 868
    Number of faces shared with processor 86 = 1958
    Number of processor patches = 4
    Number of processor faces = 7790
    Number of boundary faces = 2398

Processor 7
    Number of cells = 63481
    Number of points = 68979
    Number of faces shared with processor 6 = 2472
    Number of faces shared with processor 8 = 2533
    Number of faces shared with processor 27 = 897
    Number of faces shared with processor 28 = 1
    Number of faces shared with processor 87 = 2005
    Number of faces shared with processor 88 = 2
    Number of processor patches = 6
    Number of processor faces = 7910
    Number of boundary faces = 2461

Processor 8
    Number of cells = 61719
    Number of points = 67486
    Number of faces shared with processor 7 = 2533
    Number of faces shared with processor 9 = 2553
    Number of faces shared with processor 28 = 869
    Number of faces shared with processor 88 = 1959
    Number of faces shared with processor 89 = 1
    Number of processor patches = 5
    Number of processor faces = 7915
    Number of boundary faces = 2365

Processor 9
    Number of cells = 61818
    Number of points = 67694
    Number of faces shared with processor 8 = 2553
    Number of faces shared with processor 10 = 2596
    Number of faces shared with processor 29 = 868
    Number of faces shared with processor 89 = 1954
    Number of faces shared with processor 90 = 2
    Number of processor patches = 5
    Number of processor faces = 7973
    Number of boundary faces = 2359

Processor 10
    Number of cells = 61909
    Number of points = 67821
    Number of faces shared with processor 9 = 2596
    Number of faces shared with processor 11 = 2587
    Number of faces shared with processor 30 = 868
    Number of faces shared with processor 89 = 1
    Number of faces shared with processor 90 = 1970
    Number of processor patches = 5
    Number of processor faces = 8022
    Number of boundary faces = 2349

Processor 11
    Number of cells = 63877
    Number of points = 69642
    Number of faces shared with processor 10 = 2587
    Number of faces shared with processor 12 = 2514
    Number of faces shared with processor 31 = 899
    Number of faces shared with processor 90 = 2
    Number of faces shared with processor 91 = 2006
    Number of processor patches = 5
    Number of processor faces = 8008
    Number of boundary faces = 2442

Processor 12
    Number of cells = 61039
    Number of points = 66455
    Number of faces shared with processor 11 = 2514
    Number of faces shared with processor 13 = 2474
    Number of faces shared with processor 32 = 868
    Number of faces shared with processor 91 = 1
    Number of faces shared with processor 92 = 1958
    Number of processor patches = 5
    Number of processor faces = 7815
    Number of boundary faces = 2393

Processor 13
    Number of cells = 60787
    Number of points = 66388
    Number of faces shared with processor 12 = 2474
    Number of faces shared with processor 14 = 2499
    Number of faces shared with processor 33 = 868
    Number of faces shared with processor 92 = 1
    Number of faces shared with processor 93 = 1960
    Number of faces shared with processor 94 = 1
    Number of processor patches = 6
    Number of processor faces = 7803
    Number of boundary faces = 2372

Processor 14
    Number of cells = 63473
    Number of points = 69006
    Number of faces shared with processor 13 = 2499
    Number of faces shared with processor 15 = 2612
    Number of faces shared with processor 34 = 876
    Number of faces shared with processor 35 = 2
    Number of faces shared with processor 94 = 1991
    Number of faces shared with processor 95 = 3
    Number of processor patches = 6
    Number of processor faces = 7983
    Number of boundary faces = 2458

Processor 15
    Number of cells = 61468
    Number of points = 66846
    Number of faces shared with processor 14 = 2612
    Number of faces shared with processor 16 = 2526
    Number of faces shared with processor 35 = 889
    Number of faces shared with processor 95 = 1970
    Number of faces shared with processor 96 = 2
    Number of processor patches = 5
    Number of processor faces = 7999
    Number of boundary faces = 2398

Processor 16
    Number of cells = 70280
    Number of points = 76075
    Number of faces shared with processor 15 = 2526
    Number of faces shared with processor 17 = 1949
    Number of faces shared with processor 36 = 979
    Number of faces shared with processor 96 = 1961
    Number of processor patches = 4
    Number of processor faces = 7415
    Number of boundary faces = 3290

Processor 17
    Number of cells = 108408
    Number of points = 117918
    Number of faces shared with processor 16 = 1949
    Number of faces shared with processor 18 = 1983
    Number of faces shared with processor 37 = 1443
    Number of faces shared with processor 97 = 1986
    Number of faces shared with processor 98 = 1
    Number of processor patches = 5
    Number of processor faces = 7362
    Number of boundary faces = 6220

Processor 18
    Number of cells = 108538
    Number of points = 116999
    Number of faces shared with processor 17 = 1983
    Number of faces shared with processor 19 = 1994
    Number of faces shared with processor 38 = 1450
    Number of faces shared with processor 98 = 1986
    Number of faces shared with processor 99 = 1
    Number of processor patches = 5
    Number of processor faces = 7414
    Number of boundary faces = 6349

Processor 19
    Number of cells = 108659
    Number of points = 117009
    Number of faces shared with processor 18 = 1994
    Number of faces shared with processor 38 = 3
    Number of faces shared with processor 39 = 1968
    Number of faces shared with processor 98 = 1
    Number of faces shared with processor 99 = 3109
    Number of processor patches = 5
    Number of processor faces = 7075
    Number of boundary faces = 7404

Processor 20
    Number of cells = 107140
    Number of points = 115466
    Number of faces shared with processor 0 = 2036
    Number of faces shared with processor 21 = 2233
    Number of faces shared with processor 40 = 590
    Number of faces shared with processor 100 = 3440
    Number of faces shared with processor 101 = 1
    Number of processor patches = 5
    Number of processor faces = 8300
    Number of boundary faces = 7452

Processor 21
    Number of cells = 95480
    Number of points = 102757
    Number of faces shared with processor 0 = 2
    Number of faces shared with processor 1 = 1157
    Number of faces shared with processor 20 = 2233
    Number of faces shared with processor 22 = 2220
    Number of faces shared with processor 41 = 30
    Number of faces shared with processor 101 = 1289
    Number of faces shared with processor 102 = 14
    Number of processor patches = 7
    Number of processor faces = 6945
    Number of boundary faces = 7502

Processor 22
    Number of cells = 91049
    Number of points = 98502
    Number of faces shared with processor 2 = 989
    Number of faces shared with processor 21 = 2220
    Number of faces shared with processor 23 = 2292
    Number of faces shared with processor 42 = 30
    Number of faces shared with processor 102 = 1136
    Number of processor patches = 5
    Number of processor faces = 6667
    Number of boundary faces = 7362

Processor 23
    Number of cells = 92361
    Number of points = 100143
    Number of faces shared with processor 3 = 1012
    Number of faces shared with processor 22 = 2292
    Number of faces shared with processor 24 = 2440
    Number of faces shared with processor 43 = 30
    Number of faces shared with processor 103 = 1188
    Number of processor patches = 5
    Number of processor faces = 6962
    Number of boundary faces = 7398

Processor 24
    Number of cells = 89239
    Number of points = 96811
    Number of faces shared with processor 4 = 1104
    Number of faces shared with processor 23 = 2440
    Number of faces shared with processor 25 = 2238
    Number of faces shared with processor 44 = 30
    Number of faces shared with processor 104 = 1324
    Number of processor patches = 5
    Number of processor faces = 7136
    Number of boundary faces = 6796

Processor 25
    Number of cells = 68652
    Number of points = 74919
    Number of faces shared with processor 5 = 952
    Number of faces shared with processor 24 = 2238
    Number of faces shared with processor 26 = 2517
    Number of faces shared with processor 45 = 10
    Number of faces shared with processor 105 = 1741
    Number of processor patches = 5
    Number of processor faces = 7458
    Number of boundary faces = 4419

Processor 26
    Number of cells = 61813
    Number of points = 67076
    Number of faces shared with processor 6 = 868
    Number of faces shared with processor 25 = 2517
    Number of faces shared with processor 27 = 2484
    Number of faces shared with processor 46 = 20
    Number of faces shared with processor 106 = 1937
    Number of processor patches = 5
    Number of processor faces = 7826
    Number of boundary faces = 2383

Processor 27
    Number of cells = 62028
    Number of points = 67602
    Number of faces shared with processor 7 = 897
    Number of faces shared with processor 26 = 2484
    Number of faces shared with processor 28 = 2550
    Number of faces shared with processor 47 = 20
    Number of faces shared with processor 107 = 1945
    Number of processor patches = 5
    Number of processor faces = 7896
    Number of boundary faces = 2388

Processor 28
    Number of cells = 63487
    Number of points = 69324
    Number of faces shared with processor 7 = 1
    Number of faces shared with processor 8 = 869
    Number of faces shared with processor 27 = 2550
    Number of faces shared with processor 29 = 2565
    Number of faces shared with processor 48 = 20
    Number of faces shared with processor 108 = 2001
    Number of processor patches = 6
    Number of processor faces = 8006
    Number of boundary faces = 2398

Processor 29
    Number of cells = 61975
    Number of points = 67762
    Number of faces shared with processor 9 = 868
    Number of faces shared with processor 28 = 2565
    Number of faces shared with processor 30 = 2583
    Number of faces shared with processor 49 = 20
    Number of faces shared with processor 108 = 1
    Number of faces shared with processor 109 = 1936
    Number of processor patches = 6
    Number of processor faces = 7973
    Number of boundary faces = 2340

Processor 30
    Number of cells = 62276
    Number of points = 67716
    Number of faces shared with processor 10 = 868
    Number of faces shared with processor 29 = 2583
    Number of faces shared with processor 31 = 2552
    Number of faces shared with processor 50 = 10
    Number of faces shared with processor 109 = 1
    Number of faces shared with processor 110 = 1943
    Number of processor patches = 6
    Number of processor faces = 7957
    Number of boundary faces = 2382

Processor 31
    Number of cells = 62386
    Number of points = 67914
    Number of faces shared with processor 11 = 899
    Number of faces shared with processor 30 = 2552
    Number of faces shared with processor 32 = 2638
    Number of faces shared with processor 51 = 20
    Number of faces shared with processor 110 = 1
    Number of faces shared with processor 111 = 1947
    Number of faces shared with processor 112 = 12
    Number of processor patches = 7
    Number of processor faces = 8069
    Number of boundary faces = 2408

Processor 32
    Number of cells = 63769
    Number of points = 69216
    Number of faces shared with processor 12 = 868
    Number of faces shared with processor 31 = 2638
    Number of faces shared with processor 33 = 2516
    Number of faces shared with processor 52 = 20
    Number of faces shared with processor 112 = 2000
    Number of faces shared with processor 113 = 11
    Number of processor patches = 6
    Number of processor faces = 8053
    Number of boundary faces = 2437

Processor 33
    Number of cells = 61610
    Number of points = 67003
    Number of faces shared with processor 13 = 868
    Number of faces shared with processor 32 = 2516
    Number of faces shared with processor 34 = 2520
    Number of faces shared with processor 53 = 20
    Number of faces shared with processor 113 = 1950
    Number of faces shared with processor 114 = 8
    Number of processor patches = 6
    Number of processor faces = 7882
    Number of boundary faces = 2372

Processor 34
    Number of cells = 62020
    Number of points = 67757
    Number of faces shared with processor 14 = 876
    Number of faces shared with processor 33 = 2520
    Number of faces shared with processor 35 = 2537
    Number of faces shared with processor 54 = 10
    Number of faces shared with processor 114 = 1973
    Number of faces shared with processor 115 = 1
    Number of processor patches = 6
    Number of processor faces = 7917
    Number of boundary faces = 2361

Processor 35
    Number of cells = 63850
    Number of points = 69685
    Number of faces shared with processor 14 = 2
    Number of faces shared with processor 15 = 889
    Number of faces shared with processor 34 = 2537
    Number of faces shared with processor 36 = 2599
    Number of faces shared with processor 55 = 20
    Number of faces shared with processor 115 = 2004
    Number of faces shared with processor 116 = 2
    Number of processor patches = 7
    Number of processor faces = 8053
    Number of boundary faces = 2413

Processor 36
    Number of cells = 70953
    Number of points = 77124
    Number of faces shared with processor 16 = 979
    Number of faces shared with processor 35 = 2599
    Number of faces shared with processor 37 = 1941
    Number of faces shared with processor 56 = 30
    Number of faces shared with processor 116 = 1963
    Number of processor patches = 5
    Number of processor faces = 7512
    Number of boundary faces = 3228

Processor 37
    Number of cells = 107525
    Number of points = 115845
    Number of faces shared with processor 17 = 1443
    Number of faces shared with processor 36 = 1941
    Number of faces shared with processor 38 = 1991
    Number of faces shared with processor 57 = 40
    Number of faces shared with processor 117 = 1986
    Number of faces shared with processor 118 = 1
    Number of processor patches = 6
    Number of processor faces = 7402
    Number of boundary faces = 6293

Processor 38
    Number of cells = 107772
    Number of points = 116254
    Number of faces shared with processor 18 = 1450
    Number of faces shared with processor 19 = 3
    Number of faces shared with processor 37 = 1991
    Number of faces shared with processor 39 = 1932
    Number of faces shared with processor 58 = 50
    Number of faces shared with processor 118 = 1985
    Number of processor patches = 6
    Number of processor faces = 7411
    Number of boundary faces = 6276

Processor 39
    Number of cells = 109184
    Number of points = 118119
    Number of faces shared with processor 19 = 1968
    Number of faces shared with processor 38 = 1932
    Number of faces shared with processor 59 = 420
    Number of faces shared with processor 119 = 3112
    Number of processor patches = 4
    Number of processor faces = 7432
    Number of boundary faces = 6808

Processor 40
    Number of cells = 105869
    Number of points = 113953
    Number of faces shared with processor 20 = 590
    Number of faces shared with processor 41 = 2198
    Number of faces shared with processor 60 = 2033
    Number of faces shared with processor 120 = 3313
    Number of processor patches = 4
    Number of processor faces = 8134
    Number of boundary faces = 7336

Processor 41
    Number of cells = 93149
    Number of points = 100191
    Number of faces shared with processor 21 = 30
    Number of faces shared with processor 40 = 2198
    Number of faces shared with processor 42 = 2341
    Number of faces shared with processor 61 = 1150
    Number of faces shared with processor 121 = 1313
    Number of faces shared with processor 122 = 14
    Number of processor patches = 6
    Number of processor faces = 7046
    Number of boundary faces = 7118

Processor 42
    Number of cells = 91551
    Number of points = 99162
    Number of faces shared with processor 22 = 30
    Number of faces shared with processor 41 = 2341
    Number of faces shared with processor 43 = 2207
    Number of faces shared with processor 62 = 989
    Number of faces shared with processor 122 = 1125
    Number of processor patches = 5
    Number of processor faces = 6692
    Number of boundary faces = 7327

Processor 43
    Number of cells = 93348
    Number of points = 100852
    Number of faces shared with processor 23 = 30
    Number of faces shared with processor 42 = 2207
    Number of faces shared with processor 44 = 2201
    Number of faces shared with processor 63 = 1012
    Number of faces shared with processor 123 = 1131
    Number of processor patches = 5
    Number of processor faces = 6581
    Number of boundary faces = 7439

Processor 44
    Number of cells = 91277
    Number of points = 98766
    Number of faces shared with processor 24 = 30
    Number of faces shared with processor 43 = 2201
    Number of faces shared with processor 45 = 2173
    Number of faces shared with processor 64 = 1104
    Number of faces shared with processor 124 = 1209
    Number of processor patches = 5
    Number of processor faces = 6717
    Number of boundary faces = 7079

Processor 45
    Number of cells = 71478
    Number of points = 77677
    Number of faces shared with processor 25 = 10
    Number of faces shared with processor 44 = 2173
    Number of faces shared with processor 46 = 2607
    Number of faces shared with processor 65 = 963
    Number of faces shared with processor 125 = 1700
    Number of processor patches = 5
    Number of processor faces = 7453
    Number of boundary faces = 4740

Processor 46
    Number of cells = 64878
    Number of points = 70291
    Number of faces shared with processor 26 = 20
    Number of faces shared with processor 45 = 2607
    Number of faces shared with processor 47 = 2535
    Number of faces shared with processor 66 = 928
    Number of faces shared with processor 126 = 1965
    Number of processor patches = 5
    Number of processor faces = 8055
    Number of boundary faces = 2428

Processor 47
    Number of cells = 63344
    Number of points = 68834
    Number of faces shared with processor 27 = 20
    Number of faces shared with processor 46 = 2535
    Number of faces shared with processor 48 = 2557
    Number of faces shared with processor 67 = 896
    Number of faces shared with processor 127 = 1917
    Number of processor patches = 5
    Number of processor faces = 7925
    Number of boundary faces = 2373

Processor 48
    Number of cells = 63532
    Number of points = 69335
    Number of faces shared with processor 128 = 1917
    Number of faces shared with processor 28 = 20
    Number of faces shared with processor 47 = 2557
    Number of faces shared with processor 49 = 2579
    Number of faces shared with processor 68 = 896
    Number of processor patches = 5
    Number of processor faces = 7969
    Number of boundary faces = 2345

Processor 49
    Number of cells = 65604
    Number of points = 71589
    Number of faces shared with processor 129 = 1965
    Number of faces shared with processor 29 = 20
    Number of faces shared with processor 48 = 2579
    Number of faces shared with processor 50 = 2629
    Number of faces shared with processor 69 = 928
    Number of processor patches = 5
    Number of processor faces = 8121
    Number of boundary faces = 2407

Processor 50
    Number of cells = 63657
    Number of points = 69595
    Number of faces shared with processor 130 = 1916
    Number of faces shared with processor 30 = 10
    Number of faces shared with processor 49 = 2629
    Number of faces shared with processor 51 = 2646
    Number of faces shared with processor 70 = 896
    Number of processor patches = 5
    Number of processor faces = 8097
    Number of boundary faces = 2339

Processor 51
    Number of cells = 63877
    Number of points = 69726
    Number of faces shared with processor 131 = 1917
    Number of faces shared with processor 132 = 10
    Number of faces shared with processor 31 = 20
    Number of faces shared with processor 50 = 2646
    Number of faces shared with processor 52 = 2631
    Number of faces shared with processor 71 = 896
    Number of processor patches = 6
    Number of processor faces = 8120
    Number of boundary faces = 2353

Processor 52
    Number of cells = 62900
    Number of points = 68437
    Number of faces shared with processor 132 = 1907
    Number of faces shared with processor 133 = 10
    Number of faces shared with processor 32 = 20
    Number of faces shared with processor 51 = 2631
    Number of faces shared with processor 53 = 2596
    Number of faces shared with processor 72 = 896
    Number of processor patches = 6
    Number of processor faces = 8060
    Number of boundary faces = 2374

Processor 53
    Number of cells = 64529
    Number of points = 70314
    Number of faces shared with processor 133 = 1955
    Number of faces shared with processor 134 = 10
    Number of faces shared with processor 33 = 20
    Number of faces shared with processor 52 = 2596
    Number of faces shared with processor 54 = 2580
    Number of faces shared with processor 73 = 928
    Number of processor patches = 6
    Number of processor faces = 8089
    Number of boundary faces = 2417

Processor 54
    Number of cells = 63622
    Number of points = 69152
    Number of faces shared with processor 134 = 1925
    Number of faces shared with processor 34 = 10
    Number of faces shared with processor 53 = 2580
    Number of faces shared with processor 55 = 2588
    Number of faces shared with processor 74 = 896
    Number of processor patches = 5
    Number of processor faces = 7999
    Number of boundary faces = 2383

Processor 55
    Number of cells = 62904
    Number of points = 68298
    Number of faces shared with processor 134 = 10
    Number of faces shared with processor 135 = 1964
    Number of faces shared with processor 136 = 1
    Number of faces shared with processor 35 = 20
    Number of faces shared with processor 54 = 2588
    Number of faces shared with processor 56 = 2542
    Number of faces shared with processor 75 = 896
    Number of processor patches = 7
    Number of processor faces = 8021
    Number of boundary faces = 2378

Processor 56
    Number of cells = 73655
    Number of points = 79646
    Number of faces shared with processor 135 = 10
    Number of faces shared with processor 136 = 1990
    Number of faces shared with processor 36 = 30
    Number of faces shared with processor 55 = 2542
    Number of faces shared with processor 57 = 2017
    Number of faces shared with processor 76 = 1039
    Number of faces shared with processor 77 = 1
    Number of processor patches = 7
    Number of processor faces = 7629
    Number of boundary faces = 3334

Processor 57
    Number of cells = 108917
    Number of points = 118381
    Number of faces shared with processor 137 = 1949
    Number of faces shared with processor 37 = 40
    Number of faces shared with processor 56 = 2017
    Number of faces shared with processor 58 = 1936
    Number of faces shared with processor 77 = 1464
    Number of processor patches = 5
    Number of processor faces = 7406
    Number of boundary faces = 6106

Processor 58
    Number of cells = 111331
    Number of points = 119806
    Number of faces shared with processor 137 = 8
    Number of faces shared with processor 138 = 1941
    Number of faces shared with processor 38 = 50
    Number of faces shared with processor 57 = 1936
    Number of faces shared with processor 59 = 2006
    Number of faces shared with processor 78 = 1503
    Number of processor patches = 6
    Number of processor faces = 7444
    Number of boundary faces = 6367

Processor 59
    Number of cells = 110625
    Number of points = 118971
    Number of faces shared with processor 139 = 3026
    Number of faces shared with processor 39 = 420
    Number of faces shared with processor 58 = 2006
    Number of faces shared with processor 78 = 3
    Number of faces shared with processor 79 = 2008
    Number of processor patches = 5
    Number of processor faces = 7463
    Number of boundary faces = 6992

Processor 60
    Number of cells = 107646
    Number of points = 115938
    Number of faces shared with processor 140 = 3361
    Number of faces shared with processor 40 = 2033
    Number of faces shared with processor 61 = 2209
    Number of processor patches = 3
    Number of processor faces = 7603
    Number of boundary faces = 8086

Processor 61
    Number of cells = 94434
    Number of points = 101685
    Number of faces shared with processor 140 = 4
    Number of faces shared with processor 141 = 1233
    Number of faces shared with processor 142 = 14
    Number of faces shared with processor 41 = 1150
    Number of faces shared with processor 60 = 2209
    Number of faces shared with processor 62 = 2309
    Number of processor patches = 6
    Number of processor faces = 6919
    Number of boundary faces = 7464

Processor 62
    Number of cells = 92076
    Number of points = 99548
    Number of faces shared with processor 142 = 1086
    Number of faces shared with processor 42 = 989
    Number of faces shared with processor 61 = 2309
    Number of faces shared with processor 63 = 2233
    Number of processor patches = 4
    Number of processor faces = 6617
    Number of boundary faces = 7461

Processor 63
    Number of cells = 92708
    Number of points = 100410
    Number of faces shared with processor 143 = 1148
    Number of faces shared with processor 43 = 1012
    Number of faces shared with processor 62 = 2233
    Number of faces shared with processor 64 = 2411
    Number of processor patches = 4
    Number of processor faces = 6804
    Number of boundary faces = 7458

Processor 64
    Number of cells = 89729
    Number of points = 97270
    Number of faces shared with processor 144 = 1274
    Number of faces shared with processor 44 = 1104
    Number of faces shared with processor 63 = 2411
    Number of faces shared with processor 65 = 2157
    Number of processor patches = 4
    Number of processor faces = 6946
    Number of boundary faces = 6868

Processor 65
    Number of cells = 69106
    Number of points = 75392
    Number of faces shared with processor 145 = 1645
    Number of faces shared with processor 45 = 963
    Number of faces shared with processor 64 = 2157
    Number of faces shared with processor 66 = 2623
    Number of processor patches = 4
    Number of processor faces = 7388
    Number of boundary faces = 4538

Processor 66
    Number of cells = 65219
    Number of points = 70709
    Number of faces shared with processor 146 = 1950
    Number of faces shared with processor 147 = 1
    Number of faces shared with processor 46 = 928
    Number of faces shared with processor 65 = 2623
    Number of faces shared with processor 67 = 2675
    Number of processor patches = 5
    Number of processor faces = 8177
    Number of boundary faces = 2470

Processor 67
    Number of cells = 63447
    Number of points = 69096
    Number of faces shared with processor 147 = 1931
    Number of faces shared with processor 47 = 896
    Number of faces shared with processor 66 = 2675
    Number of faces shared with processor 68 = 2553
    Number of processor patches = 4
    Number of processor faces = 8055
    Number of boundary faces = 2393

Processor 68
    Number of cells = 63424
    Number of points = 69212
    Number of faces shared with processor 148 = 1915
    Number of faces shared with processor 149 = 1
    Number of faces shared with processor 48 = 896
    Number of faces shared with processor 67 = 2553
    Number of faces shared with processor 69 = 2575
    Number of processor patches = 5
    Number of processor faces = 7940
    Number of boundary faces = 2366

Processor 69
    Number of cells = 64537
    Number of points = 70416
    Number of faces shared with processor 149 = 1926
    Number of faces shared with processor 150 = 1
    Number of faces shared with processor 49 = 928
    Number of faces shared with processor 68 = 2575
    Number of faces shared with processor 70 = 2645
    Number of processor patches = 5
    Number of processor faces = 8075
    Number of boundary faces = 2401

Processor 70
    Number of cells = 64917
    Number of points = 70460
    Number of faces shared with processor 150 = 1955
    Number of faces shared with processor 50 = 896
    Number of faces shared with processor 69 = 2645
    Number of faces shared with processor 71 = 2610
    Number of processor patches = 4
    Number of processor faces = 8106
    Number of boundary faces = 2423

Processor 71
    Number of cells = 63443
    Number of points = 68959
    Number of faces shared with processor 151 = 1917
    Number of faces shared with processor 152 = 10
    Number of faces shared with processor 51 = 896
    Number of faces shared with processor 70 = 2610
    Number of faces shared with processor 72 = 2640
    Number of processor patches = 5
    Number of processor faces = 8073
    Number of boundary faces = 2403

Processor 72
    Number of cells = 63878
    Number of points = 69340
    Number of faces shared with processor 152 = 1907
    Number of faces shared with processor 153 = 10
    Number of faces shared with processor 52 = 896
    Number of faces shared with processor 71 = 2640
    Number of faces shared with processor 73 = 2617
    Number of processor patches = 5
    Number of processor faces = 8070
    Number of boundary faces = 2409

Processor 73
    Number of cells = 65337
    Number of points = 70925
    Number of faces shared with processor 153 = 1954
    Number of faces shared with processor 154 = 11
    Number of faces shared with processor 53 = 928
    Number of faces shared with processor 72 = 2617
    Number of faces shared with processor 74 = 2638
    Number of processor patches = 5
    Number of processor faces = 8148
    Number of boundary faces = 2467

Processor 74
    Number of cells = 63718
    Number of points = 69540
    Number of faces shared with processor 154 = 1908
    Number of faces shared with processor 155 = 8
    Number of faces shared with processor 54 = 896
    Number of faces shared with processor 73 = 2638
    Number of faces shared with processor 75 = 2627
    Number of processor patches = 5
    Number of processor faces = 8077
    Number of boundary faces = 2364

Processor 75
    Number of cells = 63790
    Number of points = 69625
    Number of faces shared with processor 154 = 2
    Number of faces shared with processor 155 = 1916
    Number of faces shared with processor 55 = 896
    Number of faces shared with processor 74 = 2627
    Number of faces shared with processor 76 = 2599
    Number of processor patches = 5
    Number of processor faces = 8040
    Number of boundary faces = 2368

Processor 76
    Number of cells = 73641
    Number of points = 79874
    Number of faces shared with processor 155 = 10
    Number of faces shared with processor 156 = 1912
    Number of faces shared with processor 56 = 1039
    Number of faces shared with processor 75 = 2599
    Number of faces shared with processor 77 = 1922
    Number of processor patches = 5
    Number of processor faces = 7482
    Number of boundary faces = 3266

Processor 77
    Number of cells = 109151
    Number of points = 117417
    Number of faces shared with processor 157 = 1949
    Number of faces shared with processor 56 = 1
    Number of faces shared with processor 57 = 1464
    Number of faces shared with processor 76 = 1922
    Number of faces shared with processor 78 = 1922
    Number of processor patches = 5
    Number of processor faces = 7258
    Number of boundary faces = 6323

Processor 78
    Number of cells = 109979
    Number of points = 118476
    Number of faces shared with processor 157 = 8
    Number of faces shared with processor 158 = 1941
    Number of faces shared with processor 58 = 1503
    Number of faces shared with processor 59 = 3
    Number of faces shared with processor 77 = 1922
    Number of faces shared with processor 79 = 1959
    Number of processor patches = 6
    Number of processor faces = 7336
    Number of boundary faces = 6362

Processor 79
    Number of cells = 111706
    Number of points = 120639
    Number of faces shared with processor 159 = 3026
    Number of faces shared with processor 59 = 2008
    Number of faces shared with processor 78 = 1959
    Number of processor patches = 3
    Number of processor faces = 6993
    Number of boundary faces = 7268

Processor 80
    Number of cells = 49601
    Number of points = 57436
    Number of faces shared with processor 0 = 3375
    Number of faces shared with processor 81 = 2186
    Number of faces shared with processor 100 = 1718
    Number of processor patches = 3
    Number of processor faces = 7279
    Number of boundary faces = 3342

Processor 81
    Number of cells = 62444
    Number of points = 67765
    Number of faces shared with processor 1 = 1373
    Number of faces shared with processor 80 = 2186
    Number of faces shared with processor 82 = 2432
    Number of faces shared with processor 100 = 1
    Number of faces shared with processor 101 = 1094
    Number of processor patches = 5
    Number of processor faces = 7086
    Number of boundary faces = 3816

Processor 82
    Number of cells = 66858
    Number of points = 74591
    Number of faces shared with processor 1 = 14
    Number of faces shared with processor 2 = 1163
    Number of faces shared with processor 3 = 1
    Number of faces shared with processor 81 = 2432
    Number of faces shared with processor 83 = 2819
    Number of faces shared with processor 102 = 856
    Number of processor patches = 6
    Number of processor faces = 7285
    Number of boundary faces = 3991

Processor 83
    Number of cells = 65017
    Number of points = 73670
    Number of faces shared with processor 3 = 1220
    Number of faces shared with processor 4 = 1
    Number of faces shared with processor 82 = 2819
    Number of faces shared with processor 84 = 2596
    Number of faces shared with processor 103 = 858
    Number of processor patches = 5
    Number of processor faces = 7494
    Number of boundary faces = 4138

Processor 84
    Number of cells = 69510
    Number of points = 78465
    Number of faces shared with processor 4 = 1318
    Number of faces shared with processor 5 = 1
    Number of faces shared with processor 83 = 2596
    Number of faces shared with processor 85 = 2678
    Number of faces shared with processor 104 = 927
    Number of processor patches = 5
    Number of processor faces = 7520
    Number of boundary faces = 4590

Processor 85
    Number of cells = 92218
    Number of points = 101519
    Number of faces shared with processor 5 = 1809
    Number of faces shared with processor 84 = 2678
    Number of faces shared with processor 86 = 4355
    Number of faces shared with processor 105 = 1511
    Number of processor patches = 4
    Number of processor faces = 10353
    Number of boundary faces = 4118

Processor 86
    Number of cells = 94470
    Number of points = 102697
    Number of faces shared with processor 6 = 1958
    Number of faces shared with processor 85 = 4355
    Number of faces shared with processor 87 = 4399
    Number of faces shared with processor 106 = 1696
    Number of processor patches = 4
    Number of processor faces = 12408
    Number of boundary faces = 57

Processor 87
    Number of cells = 96078
    Number of points = 104408
    Number of faces shared with processor 7 = 2005
    Number of faces shared with processor 86 = 4399
    Number of faces shared with processor 88 = 4468
    Number of faces shared with processor 107 = 1705
    Number of processor patches = 4
    Number of processor faces = 12577
    Number of boundary faces = 58

Processor 88
    Number of cells = 96180
    Number of points = 104566
    Number of faces shared with processor 7 = 2
    Number of faces shared with processor 8 = 1959
    Number of faces shared with processor 87 = 4468
    Number of faces shared with processor 89 = 4475
    Number of faces shared with processor 108 = 1758
    Number of processor patches = 5
    Number of processor faces = 12662
    Number of boundary faces = 58

Processor 89
    Number of cells = 94373
    Number of points = 102683
    Number of faces shared with processor 8 = 1
    Number of faces shared with processor 9 = 1954
    Number of faces shared with processor 10 = 1
    Number of faces shared with processor 88 = 4475
    Number of faces shared with processor 90 = 4468
    Number of faces shared with processor 109 = 1696
    Number of processor patches = 6
    Number of processor faces = 12595
    Number of boundary faces = 58

Processor 90
    Number of cells = 94825
    Number of points = 103223
    Number of faces shared with processor 9 = 2
    Number of faces shared with processor 10 = 1970
    Number of faces shared with processor 11 = 2
    Number of faces shared with processor 89 = 4468
    Number of faces shared with processor 91 = 4574
    Number of faces shared with processor 110 = 1700
    Number of processor patches = 6
    Number of processor faces = 12716
    Number of boundary faces = 29

Processor 91
    Number of cells = 96362
    Number of points = 104837
    Number of faces shared with processor 11 = 2006
    Number of faces shared with processor 12 = 1
    Number of faces shared with processor 90 = 4574
    Number of faces shared with processor 92 = 4538
    Number of faces shared with processor 111 = 1706
    Number of faces shared with processor 112 = 1
    Number of processor patches = 6
    Number of processor faces = 12826
    Number of boundary faces = 58

Processor 92
    Number of cells = 95971
    Number of points = 104376
    Number of faces shared with processor 12 = 1958
    Number of faces shared with processor 13 = 1
    Number of faces shared with processor 91 = 4538
    Number of faces shared with processor 93 = 4446
    Number of faces shared with processor 112 = 1755
    Number of processor patches = 5
    Number of processor faces = 12698
    Number of boundary faces = 58

Processor 93
    Number of cells = 94501
    Number of points = 102817
    Number of faces shared with processor 13 = 1960
    Number of faces shared with processor 92 = 4446
    Number of faces shared with processor 94 = 4469
    Number of faces shared with processor 113 = 1696
    Number of processor patches = 4
    Number of processor faces = 12571
    Number of boundary faces = 58

Processor 94
    Number of cells = 95483
    Number of points = 103884
    Number of faces shared with processor 13 = 1
    Number of faces shared with processor 14 = 1991
    Number of faces shared with processor 93 = 4469
    Number of faces shared with processor 95 = 4534
    Number of faces shared with processor 114 = 1709
    Number of processor patches = 5
    Number of processor faces = 12704
    Number of boundary faces = 29

Processor 95
    Number of cells = 96881
    Number of points = 105320
    Number of faces shared with processor 14 = 3
    Number of faces shared with processor 15 = 1970
    Number of faces shared with processor 94 = 4534
    Number of faces shared with processor 96 = 4576
    Number of faces shared with processor 115 = 1749
    Number of processor patches = 5
    Number of processor faces = 12832
    Number of boundary faces = 58

Processor 96
    Number of cells = 84454
    Number of points = 92811
    Number of faces shared with processor 15 = 2
    Number of faces shared with processor 16 = 1961
    Number of faces shared with processor 95 = 4576
    Number of faces shared with processor 97 = 2202
    Number of faces shared with processor 116 = 1622
    Number of processor patches = 5
    Number of processor faces = 10363
    Number of boundary faces = 87

Processor 97
    Number of cells = 50043
    Number of points = 55694
    Number of faces shared with processor 17 = 1986
    Number of faces shared with processor 96 = 2202
    Number of faces shared with processor 98 = 1988
    Number of faces shared with processor 117 = 1313
    Number of processor patches = 4
    Number of processor faces = 7489
    Number of boundary faces = 116

Processor 98
    Number of cells = 49111
    Number of points = 54476
    Number of faces shared with processor 17 = 1
    Number of faces shared with processor 18 = 1986
    Number of faces shared with processor 19 = 1
    Number of faces shared with processor 97 = 1988
    Number of faces shared with processor 99 = 1885
    Number of faces shared with processor 118 = 1287
    Number of processor patches = 6
    Number of processor faces = 7148
    Number of boundary faces = 145

Processor 99
    Number of cells = 48554
    Number of points = 55689
    Number of faces shared with processor 18 = 1
    Number of faces shared with processor 19 = 3109
    Number of faces shared with processor 98 = 1885
    Number of faces shared with processor 119 = 1616
    Number of processor patches = 4
    Number of processor faces = 6611
    Number of boundary faces = 1426

Processor 100
    Number of cells = 52950
    Number of points = 61291
    Number of faces shared with processor 20 = 3440
    Number of faces shared with processor 80 = 1718
    Number of faces shared with processor 81 = 1
    Number of faces shared with processor 101 = 2342
    Number of faces shared with processor 120 = 944
    Number of processor patches = 5
    Number of processor faces = 8445
    Number of boundary faces = 2551

Processor 101
    Number of cells = 65933
    Number of points = 71967
    Number of faces shared with processor 20 = 1
    Number of faces shared with processor 21 = 1289
    Number of faces shared with processor 81 = 1094
    Number of faces shared with processor 100 = 2342
    Number of faces shared with processor 102 = 2508
    Number of faces shared with processor 121 = 48
    Number of processor patches = 6
    Number of processor faces = 7282
    Number of boundary faces = 4004

Processor 102
    Number of cells = 65926
    Number of points = 73771
    Number of faces shared with processor 21 = 14
    Number of faces shared with processor 22 = 1136
    Number of faces shared with processor 82 = 856
    Number of faces shared with processor 101 = 2508
    Number of faces shared with processor 103 = 2792
    Number of faces shared with processor 122 = 48
    Number of processor patches = 6
    Number of processor faces = 7354
    Number of boundary faces = 4006

Processor 103
    Number of cells = 65180
    Number of points = 73742
    Number of faces shared with processor 23 = 1188
    Number of faces shared with processor 83 = 858
    Number of faces shared with processor 102 = 2792
    Number of faces shared with processor 104 = 2464
    Number of faces shared with processor 123 = 48
    Number of processor patches = 5
    Number of processor faces = 7350
    Number of boundary faces = 4031

Processor 104
    Number of cells = 66237
    Number of points = 74936
    Number of faces shared with processor 24 = 1324
    Number of faces shared with processor 84 = 927
    Number of faces shared with processor 103 = 2464
    Number of faces shared with processor 105 = 2595
    Number of faces shared with processor 124 = 48
    Number of processor patches = 5
    Number of processor faces = 7358
    Number of boundary faces = 4292

Processor 105
    Number of cells = 87426
    Number of points = 96509
    Number of faces shared with processor 25 = 1741
    Number of faces shared with processor 85 = 1511
    Number of faces shared with processor 104 = 2595
    Number of faces shared with processor 106 = 4336
    Number of faces shared with processor 125 = 16
    Number of processor patches = 5
    Number of processor faces = 10199
    Number of boundary faces = 3697

Processor 106
    Number of cells = 94117
    Number of points = 102264
    Number of faces shared with processor 26 = 1937
    Number of faces shared with processor 86 = 1696
    Number of faces shared with processor 105 = 4336
    Number of faces shared with processor 107 = 4348
    Number of faces shared with processor 126 = 32
    Number of processor patches = 5
    Number of processor faces = 12349
    Number of boundary faces = 26

Processor 107
    Number of cells = 94444
    Number of points = 102620
    Number of faces shared with processor 27 = 1945
    Number of faces shared with processor 87 = 1705
    Number of faces shared with processor 106 = 4348
    Number of faces shared with processor 108 = 4290
    Number of faces shared with processor 127 = 32
    Number of processor patches = 5
    Number of processor faces = 12320
    Number of boundary faces = 26

Processor 108
    Number of cells = 96884
    Number of points = 105170
    Number of faces shared with processor 128 = 32
    Number of faces shared with processor 28 = 2001
    Number of faces shared with processor 29 = 1
    Number of faces shared with processor 88 = 1758
    Number of faces shared with processor 107 = 4290
    Number of faces shared with processor 109 = 4456
    Number of processor patches = 6
    Number of processor faces = 12538
    Number of boundary faces = 26

Processor 109
    Number of cells = 94645
    Number of points = 102901
    Number of faces shared with processor 129 = 32
    Number of faces shared with processor 29 = 1936
    Number of faces shared with processor 30 = 1
    Number of faces shared with processor 89 = 1696
    Number of faces shared with processor 108 = 4456
    Number of faces shared with processor 110 = 4444
    Number of processor patches = 6
    Number of processor faces = 12565
    Number of boundary faces = 26

Processor 110
    Number of cells = 94363
    Number of points = 102642
    Number of faces shared with processor 130 = 16
    Number of faces shared with processor 30 = 1943
    Number of faces shared with processor 31 = 1
    Number of faces shared with processor 90 = 1700
    Number of faces shared with processor 109 = 4444
    Number of faces shared with processor 111 = 4502
    Number of processor patches = 6
    Number of processor faces = 12606
    Number of boundary faces = 13

Processor 111
    Number of cells = 94616
    Number of points = 103002
    Number of faces shared with processor 131 = 32
    Number of faces shared with processor 31 = 1947
    Number of faces shared with processor 91 = 1706
    Number of faces shared with processor 110 = 4502
    Number of faces shared with processor 112 = 4472
    Number of processor patches = 5
    Number of processor faces = 12659
    Number of boundary faces = 26

Processor 112
    Number of cells = 97220
    Number of points = 105636
    Number of faces shared with processor 132 = 32
    Number of faces shared with processor 31 = 12
    Number of faces shared with processor 32 = 2000
    Number of faces shared with processor 91 = 1
    Number of faces shared with processor 92 = 1755
    Number of faces shared with processor 111 = 4472
    Number of faces shared with processor 113 = 4500
    Number of processor patches = 7
    Number of processor faces = 12772
    Number of boundary faces = 26

Processor 113
    Number of cells = 94438
    Number of points = 102739
    Number of faces shared with processor 133 = 32
    Number of faces shared with processor 32 = 11
    Number of faces shared with processor 33 = 1950
    Number of faces shared with processor 93 = 1696
    Number of faces shared with processor 112 = 4500
    Number of faces shared with processor 114 = 4420
    Number of processor patches = 6
    Number of processor faces = 12609
    Number of boundary faces = 26

Processor 114
    Number of cells = 94995
    Number of points = 103333
    Number of faces shared with processor 134 = 16
    Number of faces shared with processor 33 = 8
    Number of faces shared with processor 34 = 1973
    Number of faces shared with processor 94 = 1709
    Number of faces shared with processor 113 = 4420
    Number of faces shared with processor 115 = 4434
    Number of processor patches = 6
    Number of processor faces = 12560
    Number of boundary faces = 13

Processor 115
    Number of cells = 95966
    Number of points = 104370
    Number of faces shared with processor 135 = 32
    Number of faces shared with processor 34 = 1
    Number of faces shared with processor 35 = 2004
    Number of faces shared with processor 95 = 1749
    Number of faces shared with processor 114 = 4434
    Number of faces shared with processor 116 = 4574
    Number of processor patches = 6
    Number of processor faces = 12794
    Number of boundary faces = 26

Processor 116
    Number of cells = 85951
    Number of points = 94308
    Number of faces shared with processor 136 = 48
    Number of faces shared with processor 35 = 2
    Number of faces shared with processor 36 = 1963
    Number of faces shared with processor 96 = 1622
    Number of faces shared with processor 115 = 4574
    Number of faces shared with processor 117 = 2202
    Number of processor patches = 6
    Number of processor faces = 10411
    Number of boundary faces = 39

Processor 117
    Number of cells = 50043
    Number of points = 55694
    Number of faces shared with processor 137 = 64
    Number of faces shared with processor 37 = 1986
    Number of faces shared with processor 97 = 1313
    Number of faces shared with processor 116 = 2202
    Number of faces shared with processor 118 = 1988
    Number of processor patches = 5
    Number of processor faces = 7553
    Number of boundary faces = 52

Processor 118
    Number of cells = 49110
    Number of points = 54472
    Number of faces shared with processor 138 = 80
    Number of faces shared with processor 37 = 1
    Number of faces shared with processor 38 = 1985
    Number of faces shared with processor 98 = 1287
    Number of faces shared with processor 117 = 1988
    Number of faces shared with processor 119 = 1883
    Number of processor patches = 6
    Number of processor faces = 7224
    Number of boundary faces = 65

Processor 119
    Number of cells = 48555
    Number of points = 55690
    Number of faces shared with processor 139 = 672
    Number of faces shared with processor 39 = 3112
    Number of faces shared with processor 99 = 1616
    Number of faces shared with processor 118 = 1883
    Number of processor patches = 4
    Number of processor faces = 7283
    Number of boundary faces = 754

Processor 120
    Number of cells = 48810
    Number of points = 56579
    Number of faces shared with processor 140 = 1704
    Number of faces shared with processor 40 = 3313
    Number of faces shared with processor 100 = 944
    Number of faces shared with processor 121 = 2109
    Number of processor patches = 4
    Number of processor faces = 8070
    Number of boundary faces = 2338

Processor 121
    Number of cells = 61472
    Number of points = 66719
    Number of faces shared with processor 140 = 1
    Number of faces shared with processor 141 = 1089
    Number of faces shared with processor 41 = 1313
    Number of faces shared with processor 101 = 48
    Number of faces shared with processor 120 = 2109
    Number of faces shared with processor 122 = 2548
    Number of processor patches = 6
    Number of processor faces = 7108
    Number of boundary faces = 3652

Processor 122
    Number of cells = 66627
    Number of points = 74297
    Number of faces shared with processor 142 = 856
    Number of faces shared with processor 143 = 1
    Number of faces shared with processor 41 = 14
    Number of faces shared with processor 42 = 1125
    Number of faces shared with processor 102 = 48
    Number of faces shared with processor 121 = 2548
    Number of faces shared with processor 123 = 2667
    Number of processor patches = 7
    Number of processor faces = 7259
    Number of boundary faces = 3963

Processor 123
    Number of cells = 64384
    Number of points = 72795
    Number of faces shared with processor 143 = 860
    Number of faces shared with processor 43 = 1131
    Number of faces shared with processor 103 = 48
    Number of faces shared with processor 122 = 2667
    Number of faces shared with processor 124 = 2422
    Number of processor patches = 5
    Number of processor faces = 7128
    Number of boundary faces = 4022

Processor 124
    Number of cells = 68628
    Number of points = 77322
    Number of faces shared with processor 144 = 927
    Number of faces shared with processor 44 = 1209
    Number of faces shared with processor 104 = 48
    Number of faces shared with processor 123 = 2422
    Number of faces shared with processor 125 = 2491
    Number of processor patches = 5
    Number of processor faces = 7097
    Number of boundary faces = 4495

Processor 125
    Number of cells = 88173
    Number of points = 97259
    Number of faces shared with processor 145 = 1444
    Number of faces shared with processor 45 = 1700
    Number of faces shared with processor 105 = 16
    Number of faces shared with processor 124 = 2491
    Number of faces shared with processor 126 = 4388
    Number of processor patches = 5
    Number of processor faces = 10039
    Number of boundary faces = 4070

Processor 126
    Number of cells = 95395
    Number of points = 103577
    Number of faces shared with processor 146 = 1708
    Number of faces shared with processor 147 = 1
    Number of faces shared with processor 46 = 1965
    Number of faces shared with processor 106 = 32
    Number of faces shared with processor 125 = 4388
    Number of faces shared with processor 127 = 4325
    Number of processor patches = 6
    Number of processor faces = 12419
    Number of boundary faces = 26

Processor 127
    Number of cells = 92942
    Number of points = 101056
    Number of faces shared with processor 128 = 4234
    Number of faces shared with processor 147 = 1688
    Number of faces shared with processor 47 = 1917
    Number of faces shared with processor 107 = 32
    Number of faces shared with processor 126 = 4325
    Number of processor patches = 5
    Number of processor faces = 12196
    Number of boundary faces = 26

Processor 128
    Number of cells = 92876
    Number of points = 100967
    Number of faces shared with processor 129 = 4292
    Number of faces shared with processor 148 = 1676
    Number of faces shared with processor 149 = 1
    Number of faces shared with processor 48 = 1917
    Number of faces shared with processor 108 = 32
    Number of faces shared with processor 127 = 4234
    Number of processor patches = 6
    Number of processor faces = 12152
    Number of boundary faces = 26

Processor 129
    Number of cells = 94813
    Number of points = 102984
    Number of faces shared with processor 128 = 4292
    Number of faces shared with processor 130 = 4423
    Number of faces shared with processor 149 = 1684
    Number of faces shared with processor 150 = 1
    Number of faces shared with processor 49 = 1965
    Number of faces shared with processor 109 = 32
    Number of processor patches = 6
    Number of processor faces = 12397
    Number of boundary faces = 26

Processor 130
    Number of cells = 93443
    Number of points = 101672
    Number of faces shared with processor 129 = 4423
    Number of faces shared with processor 131 = 4446
    Number of faces shared with processor 150 = 1707
    Number of faces shared with processor 50 = 1916
    Number of faces shared with processor 110 = 16
    Number of processor patches = 5
    Number of processor faces = 12508
    Number of boundary faces = 13

Processor 131
    Number of cells = 93045
    Number of points = 101341
    Number of faces shared with processor 130 = 4446
    Number of faces shared with processor 132 = 4412
    Number of faces shared with processor 151 = 1676
    Number of faces shared with processor 51 = 1917
    Number of faces shared with processor 111 = 32
    Number of processor patches = 5
    Number of processor faces = 12483
    Number of boundary faces = 26

Processor 132
    Number of cells = 92876
    Number of points = 101147
    Number of faces shared with processor 131 = 4412
    Number of faces shared with processor 133 = 4470
    Number of faces shared with processor 152 = 1677
    Number of faces shared with processor 51 = 10
    Number of faces shared with processor 52 = 1907
    Number of faces shared with processor 112 = 32
    Number of processor patches = 6
    Number of processor faces = 12508
    Number of boundary faces = 26

Processor 133
    Number of cells = 95461
    Number of points = 103703
    Number of faces shared with processor 132 = 4470
    Number of faces shared with processor 134 = 4350
    Number of faces shared with processor 153 = 1720
    Number of faces shared with processor 52 = 10
    Number of faces shared with processor 53 = 1955
    Number of faces shared with processor 113 = 32
    Number of processor patches = 6
    Number of processor faces = 12537
    Number of boundary faces = 26

Processor 134
    Number of cells = 93192
    Number of points = 101404
    Number of faces shared with processor 133 = 4350
    Number of faces shared with processor 135 = 4368
    Number of faces shared with processor 154 = 1674
    Number of faces shared with processor 155 = 1
    Number of faces shared with processor 53 = 10
    Number of faces shared with processor 54 = 1925
    Number of faces shared with processor 55 = 10
    Number of faces shared with processor 114 = 16
    Number of processor patches = 8
    Number of processor faces = 12354
    Number of boundary faces = 13

Processor 135
    Number of cells = 92878
    Number of points = 101085
    Number of faces shared with processor 134 = 4368
    Number of faces shared with processor 136 = 4396
    Number of faces shared with processor 155 = 1674
    Number of faces shared with processor 55 = 1964
    Number of faces shared with processor 56 = 10
    Number of faces shared with processor 115 = 32
    Number of processor patches = 6
    Number of processor faces = 12444
    Number of boundary faces = 26

Processor 136
    Number of cells = 86042
    Number of points = 94252
    Number of faces shared with processor 135 = 4396
    Number of faces shared with processor 137 = 2156
    Number of faces shared with processor 156 = 1645
    Number of faces shared with processor 55 = 1
    Number of faces shared with processor 56 = 1990
    Number of faces shared with processor 116 = 48
    Number of processor patches = 6
    Number of processor faces = 10236
    Number of boundary faces = 39

Processor 137
    Number of cells = 48341
    Number of points = 53908
    Number of faces shared with processor 136 = 2156
    Number of faces shared with processor 138 = 1934
    Number of faces shared with processor 157 = 1276
    Number of faces shared with processor 57 = 1949
    Number of faces shared with processor 58 = 8
    Number of faces shared with processor 117 = 64
    Number of processor patches = 6
    Number of processor faces = 7387
    Number of boundary faces = 52

Processor 138
    Number of cells = 47408
    Number of points = 52678
    Number of faces shared with processor 137 = 1934
    Number of faces shared with processor 139 = 1837
    Number of faces shared with processor 158 = 1250
    Number of faces shared with processor 58 = 1941
    Number of faces shared with processor 118 = 80
    Number of processor patches = 5
    Number of processor faces = 7042
    Number of boundary faces = 65

Processor 139
    Number of cells = 46715
    Number of points = 53763
    Number of faces shared with processor 138 = 1837
    Number of faces shared with processor 159 = 1576
    Number of faces shared with processor 59 = 3026
    Number of faces shared with processor 119 = 672
    Number of processor patches = 4
    Number of processor faces = 7111
    Number of boundary faces = 754

Processor 140
    Number of cells = 51961
    Number of points = 60257
    Number of faces shared with processor 141 = 2358
    Number of faces shared with processor 60 = 3361
    Number of faces shared with processor 61 = 4
    Number of faces shared with processor 120 = 1704
    Number of faces shared with processor 121 = 1
    Number of processor patches = 5
    Number of processor faces = 7428
    Number of boundary faces = 3423

Processor 141
    Number of cells = 65064
    Number of points = 71074
    Number of faces shared with processor 140 = 2358
    Number of faces shared with processor 142 = 2621
    Number of faces shared with processor 61 = 1233
    Number of faces shared with processor 121 = 1089
    Number of processor patches = 4
    Number of processor faces = 7301
    Number of boundary faces = 3946

Processor 142
    Number of cells = 65491
    Number of points = 73282
    Number of faces shared with processor 141 = 2621
    Number of faces shared with processor 143 = 2771
    Number of faces shared with processor 61 = 14
    Number of faces shared with processor 62 = 1086
    Number of faces shared with processor 122 = 856
    Number of processor patches = 5
    Number of processor faces = 7348
    Number of boundary faces = 4034

Processor 143
    Number of cells = 64900
    Number of points = 73369
    Number of faces shared with processor 142 = 2771
    Number of faces shared with processor 144 = 2384
    Number of faces shared with processor 63 = 1148
    Number of faces shared with processor 122 = 1
    Number of faces shared with processor 123 = 860
    Number of processor patches = 5
    Number of processor faces = 7164
    Number of boundary faces = 4003

Processor 144
    Number of cells = 65715
    Number of points = 74285
    Number of faces shared with processor 143 = 2384
    Number of faces shared with processor 145 = 2525
    Number of faces shared with processor 64 = 1274
    Number of faces shared with processor 124 = 927
    Number of processor patches = 4
    Number of processor faces = 7110
    Number of boundary faces = 4293

Processor 145
    Number of cells = 83724
    Number of points = 92763
    Number of faces shared with processor 144 = 2525
    Number of faces shared with processor 146 = 4388
    Number of faces shared with processor 65 = 1645
    Number of faces shared with processor 125 = 1444
    Number of processor patches = 4
    Number of processor faces = 10002
    Number of boundary faces = 3732

Processor 146
    Number of cells = 93387
    Number of points = 101640
    Number of faces shared with processor 145 = 4388
    Number of faces shared with processor 147 = 4481
    Number of faces shared with processor 66 = 1950
    Number of faces shared with processor 126 = 1708
    Number of processor patches = 4
    Number of processor faces = 12527
    Number of boundary faces = 58

Processor 147
    Number of cells = 94950
    Number of points = 103150
    Number of faces shared with processor 146 = 4481
    Number of faces shared with processor 148 = 4234
    Number of faces shared with processor 66 = 1
    Number of faces shared with processor 67 = 1931
    Number of faces shared with processor 126 = 1
    Number of faces shared with processor 127 = 1688
    Number of processor patches = 6
    Number of processor faces = 12336
    Number of boundary faces = 58

Processor 148
    Number of cells = 92612
    Number of points = 100728
    Number of faces shared with processor 128 = 1676
    Number of faces shared with processor 147 = 4234
    Number of faces shared with processor 149 = 4371
    Number of faces shared with processor 68 = 1915
    Number of processor patches = 4
    Number of processor faces = 12196
    Number of boundary faces = 58

Processor 149
    Number of cells = 92949
    Number of points = 101101
    Number of faces shared with processor 128 = 1
    Number of faces shared with processor 129 = 1684
    Number of faces shared with processor 148 = 4371
    Number of faces shared with processor 150 = 4312
    Number of faces shared with processor 68 = 1
    Number of faces shared with processor 69 = 1926
    Number of processor patches = 6
    Number of processor faces = 12295
    Number of boundary faces = 58

Processor 150
    Number of cells = 95324
    Number of points = 103518
    Number of faces shared with processor 129 = 1
    Number of faces shared with processor 130 = 1707
    Number of faces shared with processor 149 = 4312
    Number of faces shared with processor 151 = 4446
    Number of faces shared with processor 69 = 1
    Number of faces shared with processor 70 = 1955
    Number of processor patches = 6
    Number of processor faces = 12422
    Number of boundary faces = 29

Processor 151
    Number of cells = 93108
    Number of points = 101389
    Number of faces shared with processor 131 = 1676
    Number of faces shared with processor 150 = 4446
    Number of faces shared with processor 152 = 4404
    Number of faces shared with processor 71 = 1917
    Number of processor patches = 4
    Number of processor faces = 12443
    Number of boundary faces = 58

Processor 152
    Number of cells = 93060
    Number of points = 101339
    Number of faces shared with processor 132 = 1677
    Number of faces shared with processor 151 = 4404
    Number of faces shared with processor 153 = 4470
    Number of faces shared with processor 71 = 10
    Number of faces shared with processor 72 = 1907
    Number of processor patches = 5
    Number of processor faces = 12468
    Number of boundary faces = 58

Processor 153
    Number of cells = 94050
    Number of points = 102396
    Number of faces shared with processor 133 = 1720
    Number of faces shared with processor 152 = 4470
    Number of faces shared with processor 154 = 4559
    Number of faces shared with processor 72 = 10
    Number of faces shared with processor 73 = 1954
    Number of processor patches = 5
    Number of processor faces = 12713
    Number of boundary faces = 58

Processor 154
    Number of cells = 94210
    Number of points = 102486
    Number of faces shared with processor 134 = 1674
    Number of faces shared with processor 153 = 4559
    Number of faces shared with processor 155 = 4414
    Number of faces shared with processor 73 = 11
    Number of faces shared with processor 74 = 1908
    Number of faces shared with processor 75 = 2
    Number of processor patches = 6
    Number of processor faces = 12568
    Number of boundary faces = 29

Processor 155
    Number of cells = 92976
    Number of points = 101234
    Number of faces shared with processor 134 = 1
    Number of faces shared with processor 135 = 1674
    Number of faces shared with processor 154 = 4414
    Number of faces shared with processor 156 = 4383
    Number of faces shared with processor 74 = 8
    Number of faces shared with processor 75 = 1916
    Number of faces shared with processor 76 = 10
    Number of processor patches = 7
    Number of processor faces = 12406
    Number of boundary faces = 58

Processor 156
    Number of cells = 85737
    Number of points = 93900
    Number of faces shared with processor 136 = 1645
    Number of faces shared with processor 155 = 4383
    Number of faces shared with processor 157 = 2156
    Number of faces shared with processor 76 = 1912
    Number of processor patches = 4
    Number of processor faces = 10096
    Number of boundary faces = 87

Processor 157
    Number of cells = 48285
    Number of points = 53852
    Number of faces shared with processor 137 = 1276
    Number of faces shared with processor 156 = 2156
    Number of faces shared with processor 158 = 1934
    Number of faces shared with processor 77 = 1949
    Number of faces shared with processor 78 = 8
    Number of processor patches = 5
    Number of processor faces = 7323
    Number of boundary faces = 116

Processor 158
    Number of cells = 47464
    Number of points = 52734
    Number of faces shared with processor 138 = 1250
    Number of faces shared with processor 157 = 1934
    Number of faces shared with processor 159 = 1837
    Number of faces shared with processor 78 = 1941
    Number of processor patches = 4
    Number of processor faces = 6962
    Number of boundary faces = 145

Processor 159
    Number of cells = 46715
    Number of points = 53763
    Number of faces shared with processor 139 = 1576
    Number of faces shared with processor 158 = 1837
    Number of faces shared with processor 79 = 3026
    Number of processor patches = 3
    Number of processor faces = 6439
    Number of boundary faces = 1426

Number of processor faces = 712134
Max number of cells = 111706 (41.6883986646237% above average 78839.2)
Max number of processor patches = 8 (54.58937198067633% above average 5.175)
Max number of faces between processors = 12832 (44.1526454290906% above average 8901.674999999999)

Time = 0

Processor 0: field transfer
--> FOAM Warning : 
    From void* Foam::dlLibraryTable::openLibrary(const Foam::fileName&, bool)
    in file db/dynamicLibrary/dlLibraryTable/dlLibraryTable.C at line 188
    Could not load "libpetscFoam.so"
libpetscFoam.so: cannot open shared object file: No such file or directory
Processor 1: field transfer
--> FOAM Warning : 
    From void* Foam::dlLibraryTable::openLibrary(const Foam::fileName&, bool)
    in file db/dynamicLibrary/dlLibraryTable/dlLibraryTable.C at line 188
    Could not load "libpetscFoam.so"
libpetscFoam.so: cannot open shared object file: No such file or directory
Processor 2: field transfer
--> FOAM Warning : 
    From void* Foam::dlLibraryTable::openLibrary(const Foam::fileName&, bool)
    in file db/dynamicLibrary/dlLibraryTable/dlLibraryTable.C at line 188
    Could not load "libpetscFoam.so"
libpetscFoam.so: cannot open shared object file: No such file or directory
Processor 3: field transfer
--> FOAM Warning : 
    From void* Foam::dlLibraryTable::openLibrary(const Foam::fileName&, bool)
    in file db/dynamicLibrary/dlLibraryTable/dlLibraryTable.C at line 188
    Could not load "libpetscFoam.so"
libpetscFoam.so: cannot open shared object file: No such file or directory
Processor 4: field transfer
--> FOAM Warning : 
    From void* Foam::dlLibraryTable::openLibrary(const Foam::fileName&, bool)
    in file db/dynamicLibrary/dlLibraryTable/dlLibraryTable.C at line 188
    Could not load "libpetscFoam.so"
libpetscFoam.so: cannot open shared object file: No such file or directory
Processor 5: field transfer
--> FOAM Warning : 
    From void* Foam::dlLibraryTable::openLibrary(const Foam::fileName&, bool)
    in file db/dynamicLibrary/dlLibraryTable/dlLibraryTable.C at line 188
    Could not load "libpetscFoam.so"
libpetscFoam.so: cannot open shared object file: No such file or directory
Processor 6: field transfer
--> FOAM Warning : 
    From void* Foam::dlLibraryTable::openLibrary(const Foam::fileName&, bool)
    in file db/dynamicLibrary/dlLibraryTable/dlLibraryTable.C at line 188
    Could not load "libpetscFoam.so"
libpetscFoam.so: cannot open shared object file: No such file or directory
Processor 7: field transfer
--> FOAM Warning : 
    From void* Foam::dlLibraryTable::openLibrary(const Foam::fileName&, bool)
    in file db/dynamicLibrary/dlLibraryTable/dlLibraryTable.C at line 188
    Could not load "libpetscFoam.so"
libpetscFoam.so: cannot open shared object file: No such file or directory
Processor 8: field transfer
--> FOAM Warning : 
    From void* Foam::dlLibraryTable::openLibrary(const Foam::fileName&, bool)
    in file db/dynamicLibrary/dlLibraryTable/dlLibraryTable.C at line 188
    Could not load "libpetscFoam.so"
libpetscFoam.so: cannot open shared object file: No such file or directory
Processor 9: field transfer
--> FOAM Warning : 
    From void* Foam::dlLibraryTable::openLibrary(const Foam::fileName&, bool)
    in file db/dynamicLibrary/dlLibraryTable/dlLibraryTable.C at line 188
    Could not load "libpetscFoam.so"
libpetscFoam.so: cannot open shared object file: No such file or directory
Processor 10: field transfer
--> FOAM Warning : 
    From void* Foam::dlLibraryTable::openLibrary(const Foam::fileName&, bool)
    in file db/dynamicLibrary/dlLibraryTable/dlLibraryTable.C at line 188
    Could not load "libpetscFoam.so"
libpetscFoam.so: cannot open shared object file: No such file or directory
Processor 11: field transfer
--> FOAM Warning : 
    From void* Foam::dlLibraryTable::openLibrary(const Foam::fileName&, bool)
    in file db/dynamicLibrary/dlLibraryTable/dlLibraryTable.C at line 188
    Could not load "libpetscFoam.so"
libpetscFoam.so: cannot open shared object file: No such file or directory
Processor 12: field transfer
--> FOAM Warning : 
    From void* Foam::dlLibraryTable::openLibrary(const Foam::fileName&, bool)
    in file db/dynamicLibrary/dlLibraryTable/dlLibraryTable.C at line 188
    Could not load "libpetscFoam.so"
libpetscFoam.so: cannot open shared object file: No such file or directory
Processor 13: field transfer
--> FOAM Warning : 
    From void* Foam::dlLibraryTable::openLibrary(const Foam::fileName&, bool)
    in file db/dynamicLibrary/dlLibraryTable/dlLibraryTable.C at line 188
    Could not load "libpetscFoam.so"
libpetscFoam.so: cannot open shared object file: No such file or directory
Processor 14: field transfer
--> FOAM Warning : 
    From void* Foam::dlLibraryTable::openLibrary(const Foam::fileName&, bool)
    in file db/dynamicLibrary/dlLibraryTable/dlLibraryTable.C at line 188
    Could not load "libpetscFoam.so"
libpetscFoam.so: cannot open shared object file: No such file or directory
Processor 15: field transfer
--> FOAM Warning : 
    From void* Foam::dlLibraryTable::openLibrary(const Foam::fileName&, bool)
    in file db/dynamicLibrary/dlLibraryTable/dlLibraryTable.C at line 188
    Could not load "libpetscFoam.so"
libpetscFoam.so: cannot open shared object file: No such file or directory
Processor 16: field transfer
--> FOAM Warning : 
    From void* Foam::dlLibraryTable::openLibrary(const Foam::fileName&, bool)
    in file db/dynamicLibrary/dlLibraryTable/dlLibraryTable.C at line 188
    Could not load "libpetscFoam.so"
libpetscFoam.so: cannot open shared object file: No such file or directory
Processor 17: field transfer
--> FOAM Warning : 
    From void* Foam::dlLibraryTable::openLibrary(const Foam::fileName&, bool)
    in file db/dynamicLibrary/dlLibraryTable/dlLibraryTable.C at line 188
    Could not load "libpetscFoam.so"
libpetscFoam.so: cannot open shared object file: No such file or directory
Processor 18: field transfer
--> FOAM Warning : 
    From void* Foam::dlLibraryTable::openLibrary(const Foam::fileName&, bool)
    in file db/dynamicLibrary/dlLibraryTable/dlLibraryTable.C at line 188
    Could not load "libpetscFoam.so"
[...]
    in file db/dynamicLibrary/dlLibraryTable/dlLibraryTable.C at line 188
    Could not load "libpetscFoam.so"
libpetscFoam.so: cannot open shared object file: No such file or directory
Processor 97: field transfer
--> FOAM Warning : 
    From void* Foam::dlLibraryTable::openLibrary(const Foam::fileName&, bool)
    in file db/dynamicLibrary/dlLibraryTable/dlLibraryTable.C at line 188
    Could not load "libpetscFoam.so"
libpetscFoam.so: cannot open shared object file: No such file or directory
Processor 98: field transfer
--> FOAM Warning : 
    From void* Foam::dlLibraryTable::openLibrary(const Foam::fileName&, bool)
    in file db/dynamicLibrary/dlLibraryTable/dlLibraryTable.C at line 188
    Could not load "libpetscFoam.so"
libpetscFoam.so: cannot open shared object file: No such file or directory
Processor 99: field transfer
--> FOAM Warning : 
    From void* Foam::dlLibraryTable::openLibrary(const Foam::fileName&, bool)
    in file db/dynamicLibrary/dlLibraryTable/dlLibraryTable.C at line 188
    Could not load "libpetscFoam.so"
libpetscFoam.so: cannot open shared object file: No such file or directory
Processor 100: field transfer
--> FOAM Warning : 
    From void* Foam::dlLibraryTable::openLibrary(const Foam::fileName&, bool)
    in file db/dynamicLibrary/dlLibraryTable/dlLibraryTable.C at line 188
    Could not load "libpetscFoam.so"
libpetscFoam.so: cannot open shared object file: No such file or directory
Processor 101: field transfer
--> FOAM Warning : 
    From void* Foam::dlLibraryTable::openLibrary(const Foam::fileName&, bool)
    in file db/dynamicLibrary/dlLibraryTable/dlLibraryTable.C at line 188
    Could not load "libpetscFoam.so"
libpetscFoam.so: cannot open shared object file: No such file or directory
Processor 102: field transfer
--> FOAM Warning : 
    From void* Foam::dlLibraryTable::openLibrary(const Foam::fileName&, bool)
    in file db/dynamicLibrary/dlLibraryTable/dlLibraryTable.C at line 188
    Could not load "libpetscFoam.so"
libpetscFoam.so: cannot open shared object file: No such file or directory
Processor 103: field transfer
--> FOAM Warning : 
    From void* Foam::dlLibraryTable::openLibrary(const Foam::fileName&, bool)
    in file db/dynamicLibrary/dlLibraryTable/dlLibraryTable.C at line 188
    Could not load "libpetscFoam.so"
libpetscFoam.so: cannot open shared object file: No such file or directory
Processor 104: field transfer
--> FOAM Warning : 
    From void* Foam::dlLibraryTable::openLibrary(const Foam::fileName&, bool)
    in file db/dynamicLibrary/dlLibraryTable/dlLibraryTable.C at line 188
    Could not load "libpetscFoam.so"
libpetscFoam.so: cannot open shared object file: No such file or directory
Processor 105: field transfer
--> FOAM Warning : 
    From void* Foam::dlLibraryTable::openLibrary(const Foam::fileName&, bool)
    in file db/dynamicLibrary/dlLibraryTable/dlLibraryTable.C at line 188
    Could not load "libpetscFoam.so"
libpetscFoam.so: cannot open shared object file: No such file or directory
Processor 106: field transfer
--> FOAM Warning : 
    From void* Foam::dlLibraryTable::openLibrary(const Foam::fileName&, bool)
    in file db/dynamicLibrary/dlLibraryTable/dlLibraryTable.C at line 188
    Could not load "libpetscFoam.so"
libpetscFoam.so: cannot open shared object file: No such file or directory
Processor 107: field transfer
--> FOAM Warning : 
    From void* Foam::dlLibraryTable::openLibrary(const Foam::fileName&, bool)
    in file db/dynamicLibrary/dlLibraryTable/dlLibraryTable.C at line 188
    Could not load "libpetscFoam.so"
libpetscFoam.so: cannot open shared object file: No such file or directory
Processor 108: field transfer
--> FOAM Warning : 
    From void* Foam::dlLibraryTable::openLibrary(const Foam::fileName&, bool)
    in file db/dynamicLibrary/dlLibraryTable/dlLibraryTable.C at line 188
    Could not load "libpetscFoam.so"
libpetscFoam.so: cannot open shared object file: No such file or directory
Processor 109: field transfer
--> FOAM Warning : 
    From void* Foam::dlLibraryTable::openLibrary(const Foam::fileName&, bool)
    in file db/dynamicLibrary/dlLibraryTable/dlLibraryTable.C at line 188
    Could not load "libpetscFoam.so"
libpetscFoam.so: cannot open shared object file: No such file or directory
Processor 110: field transfer
--> FOAM Warning : 
    From void* Foam::dlLibraryTable::openLibrary(const Foam::fileName&, bool)
    in file db/dynamicLibrary/dlLibraryTable/dlLibraryTable.C at line 188
    Could not load "libpetscFoam.so"
libpetscFoam.so: cannot open shared object file: No such file or directory
Processor 111: field transfer
--> FOAM Warning : 
    From void* Foam::dlLibraryTable::openLibrary(const Foam::fileName&, bool)
    in file db/dynamicLibrary/dlLibraryTable/dlLibraryTable.C at line 188
    Could not load "libpetscFoam.so"
libpetscFoam.so: cannot open shared object file: No such file or directory
Processor 112: field transfer
--> FOAM Warning : 
    From void* Foam::dlLibraryTable::openLibrary(const Foam::fileName&, bool)
    in file db/dynamicLibrary/dlLibraryTable/dlLibraryTable.C at line 188
    Could not load "libpetscFoam.so"
libpetscFoam.so: cannot open shared object file: No such file or directory
Processor 113: field transfer
--> FOAM Warning : 
    From void* Foam::dlLibraryTable::openLibrary(const Foam::fileName&, bool)
    in file db/dynamicLibrary/dlLibraryTable/dlLibraryTable.C at line 188
    Could not load "libpetscFoam.so"
libpetscFoam.so: cannot open shared object file: No such file or directory
Processor 114: field transfer
--> FOAM Warning : 
    From void* Foam::dlLibraryTable::openLibrary(const Foam::fileName&, bool)
    in file db/dynamicLibrary/dlLibraryTable/dlLibraryTable.C at line 188
    Could not load "libpetscFoam.so"
libpetscFoam.so: cannot open shared object file: No such file or directory
Processor 115: field transfer
--> FOAM Warning : 
    From void* Foam::dlLibraryTable::openLibrary(const Foam::fileName&, bool)
    in file db/dynamicLibrary/dlLibraryTable/dlLibraryTable.C at line 188
    Could not load "libpetscFoam.so"
libpetscFoam.so: cannot open shared object file: No such file or directory
Processor 116: field transfer
--> FOAM Warning : 
    From void* Foam::dlLibraryTable::openLibrary(const Foam::fileName&, bool)
    in file db/dynamicLibrary/dlLibraryTable/dlLibraryTable.C at line 188
    Could not load "libpetscFoam.so"
libpetscFoam.so: cannot open shared object file: No such file or directory
Processor 117: field transfer
--> FOAM Warning : 
    From void* Foam::dlLibraryTable::openLibrary(const Foam::fileName&, bool)
    in file db/dynamicLibrary/dlLibraryTable/dlLibraryTable.C at line 188
    Could not load "libpetscFoam.so"
libpetscFoam.so: cannot open shared object file: No such file or directory
Processor 118: field transfer
--> FOAM Warning : 
    From void* Foam::dlLibraryTable::openLibrary(const Foam::fileName&, bool)
    in file db/dynamicLibrary/dlLibraryTable/dlLibraryTable.C at line 188
    Could not load "libpetscFoam.so"
libpetscFoam.so: cannot open shared object file: No such file or directory
Processor 119: field transfer
--> FOAM Warning : 
    From void* Foam::dlLibraryTable::openLibrary(const Foam::fileName&, bool)
    in file db/dynamicLibrary/dlLibraryTable/dlLibraryTable.C at line 188
    Could not load "libpetscFoam.so"
libpetscFoam.so: cannot open shared object file: No such file or directory
Processor 120: field transfer
--> FOAM Warning : 
    From void* Foam::dlLibraryTable::openLibrary(const Foam::fileName&, bool)
    in file db/dynamicLibrary/dlLibraryTable/dlLibraryTable.C at line 188
    Could not load "libpetscFoam.so"
libpetscFoam.so: cannot open shared object file: No such file or directory
Processor 121: field transfer
--> FOAM Warning : 
    From void* Foam::dlLibraryTable::openLibrary(const Foam::fileName&, bool)
    in file db/dynamicLibrary/dlLibraryTable/dlLibraryTable.C at line 188
    Could not load "libpetscFoam.so"
libpetscFoam.so: cannot open shared object file: No such file or directory
Processor 122: field transfer
--> FOAM Warning : 
    From void* Foam::dlLibraryTable::openLibrary(const Foam::fileName&, bool)
    in file db/dynamicLibrary/dlLibraryTable/dlLibraryTable.C at line 188
    Could not load "libpetscFoam.so"
libpetscFoam.so: cannot open shared object file: No such file or directory
Processor 123: field transfer
--> FOAM Warning : 
    From void* Foam::dlLibraryTable::openLibrary(const Foam::fileName&, bool)
    in file db/dynamicLibrary/dlLibraryTable/dlLibraryTable.C at line 188
    Could not load "libpetscFoam.so"
libpetscFoam.so: cannot open shared object file: No such file or directory
Processor 124: field transfer
--> FOAM Warning : 
    From void* Foam::dlLibraryTable::openLibrary(const Foam::fileName&, bool)
    in file db/dynamicLibrary/dlLibraryTable/dlLibraryTable.C at line 188
    Could not load "libpetscFoam.so"
libpetscFoam.so: cannot open shared object file: No such file or directory
Processor 125: field transfer
--> FOAM Warning : 
    From void* Foam::dlLibraryTable::openLibrary(const Foam::fileName&, bool)
    in file db/dynamicLibrary/dlLibraryTable/dlLibraryTable.C at line 188
    Could not load "libpetscFoam.so"
libpetscFoam.so: cannot open shared object file: No such file or directory
Processor 126: field transfer
--> FOAM Warning : 
    From void* Foam::dlLibraryTable::openLibrary(const Foam::fileName&, bool)
    in file db/dynamicLibrary/dlLibraryTable/dlLibraryTable.C at line 188
    Could not load "libpetscFoam.so"
libpetscFoam.so: cannot open shared object file: No such file or directory
Processor 127: field transfer
--> FOAM Warning : 
    From void* Foam::dlLibraryTable::openLibrary(const Foam::fileName&, bool)
    in file db/dynamicLibrary/dlLibraryTable/dlLibraryTable.C at line 188
    Could not load "libpetscFoam.so"
libpetscFoam.so: cannot open shared object file: No such file or directory
Processor 128: field transfer
--> FOAM Warning : 
    From void* Foam::dlLibraryTable::openLibrary(const Foam::fileName&, bool)
    in file db/dynamicLibrary/dlLibraryTable/dlLibraryTable.C at line 188
    Could not load "libpetscFoam.so"
libpetscFoam.so: cannot open shared object file: No such file or directory
Processor 129: field transfer
--> FOAM Warning : 
    From void* Foam::dlLibraryTable::openLibrary(const Foam::fileName&, bool)
    in file db/dynamicLibrary/dlLibraryTable/dlLibraryTable.C at line 188
    Could not load "libpetscFoam.so"
libpetscFoam.so: cannot open shared object file: No such file or directory
Processor 130: field transfer
--> FOAM Warning : 
    From void* Foam::dlLibraryTable::openLibrary(const Foam::fileName&, bool)
    in file db/dynamicLibrary/dlLibraryTable/dlLibraryTable.C at line 188
    Could not load "libpetscFoam.so"
libpetscFoam.so: cannot open shared object file: No such file or directory
Processor 131: field transfer
--> FOAM Warning : 
    From void* Foam::dlLibraryTable::openLibrary(const Foam::fileName&, bool)
    in file db/dynamicLibrary/dlLibraryTable/dlLibraryTable.C at line 188
    Could not load "libpetscFoam.so"
libpetscFoam.so: cannot open shared object file: No such file or directory
Processor 132: field transfer
--> FOAM Warning : 
    From void* Foam::dlLibraryTable::openLibrary(const Foam::fileName&, bool)
    in file db/dynamicLibrary/dlLibraryTable/dlLibraryTable.C at line 188
    Could not load "libpetscFoam.so"
libpetscFoam.so: cannot open shared object file: No such file or directory
Processor 133: field transfer
--> FOAM Warning : 
    From void* Foam::dlLibraryTable::openLibrary(const Foam::fileName&, bool)
    in file db/dynamicLibrary/dlLibraryTable/dlLibraryTable.C at line 188
    Could not load "libpetscFoam.so"
libpetscFoam.so: cannot open shared object file: No such file or directory
Processor 134: field transfer
--> FOAM Warning : 
    From void* Foam::dlLibraryTable::openLibrary(const Foam::fileName&, bool)
    in file db/dynamicLibrary/dlLibraryTable/dlLibraryTable.C at line 188
    Could not load "libpetscFoam.so"
libpetscFoam.so: cannot open shared object file: No such file or directory
Processor 135: field transfer
--> FOAM Warning : 
    From void* Foam::dlLibraryTable::openLibrary(const Foam::fileName&, bool)
    in file db/dynamicLibrary/dlLibraryTable/dlLibraryTable.C at line 188
    Could not load "libpetscFoam.so"
libpetscFoam.so: cannot open shared object file: No such file or directory
Processor 136: field transfer
--> FOAM Warning : 
    From void* Foam::dlLibraryTable::openLibrary(const Foam::fileName&, bool)
    in file db/dynamicLibrary/dlLibraryTable/dlLibraryTable.C at line 188
    Could not load "libpetscFoam.so"
libpetscFoam.so: cannot open shared object file: No such file or directory
Processor 137: field transfer
--> FOAM Warning : 
    From void* Foam::dlLibraryTable::openLibrary(const Foam::fileName&, bool)
    in file db/dynamicLibrary/dlLibraryTable/dlLibraryTable.C at line 188
    Could not load "libpetscFoam.so"
libpetscFoam.so: cannot open shared object file: No such file or directory
Processor 138: field transfer
--> FOAM Warning : 
    From void* Foam::dlLibraryTable::openLibrary(const Foam::fileName&, bool)
    in file db/dynamicLibrary/dlLibraryTable/dlLibraryTable.C at line 188
    Could not load "libpetscFoam.so"
libpetscFoam.so: cannot open shared object file: No such file or directory
Processor 139: field transfer
--> FOAM Warning : 
    From void* Foam::dlLibraryTable::openLibrary(const Foam::fileName&, bool)
    in file db/dynamicLibrary/dlLibraryTable/dlLibraryTable.C at line 188
    Could not load "libpetscFoam.so"
libpetscFoam.so: cannot open shared object file: No such file or directory
Processor 140: field transfer
--> FOAM Warning : 
    From void* Foam::dlLibraryTable::openLibrary(const Foam::fileName&, bool)
    in file db/dynamicLibrary/dlLibraryTable/dlLibraryTable.C at line 188
    Could not load "libpetscFoam.so"
libpetscFoam.so: cannot open shared object file: No such file or directory
Processor 141: field transfer
--> FOAM Warning : 
    From void* Foam::dlLibraryTable::openLibrary(const Foam::fileName&, bool)
    in file db/dynamicLibrary/dlLibraryTable/dlLibraryTable.C at line 188
    Could not load "libpetscFoam.so"
libpetscFoam.so: cannot open shared object file: No such file or directory
Processor 142: field transfer
--> FOAM Warning : 
    From void* Foam::dlLibraryTable::openLibrary(const Foam::fileName&, bool)
    in file db/dynamicLibrary/dlLibraryTable/dlLibraryTable.C at line 188
    Could not load "libpetscFoam.so"
libpetscFoam.so: cannot open shared object file: No such file or directory
Processor 143: field transfer
--> FOAM Warning : 
    From void* Foam::dlLibraryTable::openLibrary(const Foam::fileName&, bool)
    in file db/dynamicLibrary/dlLibraryTable/dlLibraryTable.C at line 188
    Could not load "libpetscFoam.so"
libpetscFoam.so: cannot open shared object file: No such file or directory
Processor 144: field transfer
--> FOAM Warning : 
    From void* Foam::dlLibraryTable::openLibrary(const Foam::fileName&, bool)
    in file db/dynamicLibrary/dlLibraryTable/dlLibraryTable.C at line 188
    Could not load "libpetscFoam.so"
libpetscFoam.so: cannot open shared object file: No such file or directory
Processor 145: field transfer
--> FOAM Warning : 
    From void* Foam::dlLibraryTable::openLibrary(const Foam::fileName&, bool)
    in file db/dynamicLibrary/dlLibraryTable/dlLibraryTable.C at line 188
    Could not load "libpetscFoam.so"
libpetscFoam.so: cannot open shared object file: No such file or directory
Processor 146: field transfer
--> FOAM Warning : 
    From void* Foam::dlLibraryTable::openLibrary(const Foam::fileName&, bool)
    in file db/dynamicLibrary/dlLibraryTable/dlLibraryTable.C at line 188
    Could not load "libpetscFoam.so"
libpetscFoam.so: cannot open shared object file: No such file or directory
Processor 147: field transfer
--> FOAM Warning : 
    From void* Foam::dlLibraryTable::openLibrary(const Foam::fileName&, bool)
    in file db/dynamicLibrary/dlLibraryTable/dlLibraryTable.C at line 188
    Could not load "libpetscFoam.so"
libpetscFoam.so: cannot open shared object file: No such file or directory
Processor 148: field transfer
--> FOAM Warning : 
    From void* Foam::dlLibraryTable::openLibrary(const Foam::fileName&, bool)
    in file db/dynamicLibrary/dlLibraryTable/dlLibraryTable.C at line 188
    Could not load "libpetscFoam.so"
libpetscFoam.so: cannot open shared object file: No such file or directory
Processor 149: field transfer
--> FOAM Warning : 
    From void* Foam::dlLibraryTable::openLibrary(const Foam::fileName&, bool)
    in file db/dynamicLibrary/dlLibraryTable/dlLibraryTable.C at line 188
    Could not load "libpetscFoam.so"
libpetscFoam.so: cannot open shared object file: No such file or directory
Processor 150: field transfer
--> FOAM Warning : 
    From void* Foam::dlLibraryTable::openLibrary(const Foam::fileName&, bool)
    in file db/dynamicLibrary/dlLibraryTable/dlLibraryTable.C at line 188
    Could not load "libpetscFoam.so"
libpetscFoam.so: cannot open shared object file: No such file or directory
Processor 151: field transfer
--> FOAM Warning : 
    From void* Foam::dlLibraryTable::openLibrary(const Foam::fileName&, bool)
    in file db/dynamicLibrary/dlLibraryTable/dlLibraryTable.C at line 188
    Could not load "libpetscFoam.so"
libpetscFoam.so: cannot open shared object file: No such file or directory
Processor 152: field transfer
--> FOAM Warning : 
    From void* Foam::dlLibraryTable::openLibrary(const Foam::fileName&, bool)
    in file db/dynamicLibrary/dlLibraryTable/dlLibraryTable.C at line 188
    Could not load "libpetscFoam.so"
libpetscFoam.so: cannot open shared object file: No such file or directory
Processor 153: field transfer
--> FOAM Warning : 
    From void* Foam::dlLibraryTable::openLibrary(const Foam::fileName&, bool)
    in file db/dynamicLibrary/dlLibraryTable/dlLibraryTable.C at line 188
    Could not load "libpetscFoam.so"
libpetscFoam.so: cannot open shared object file: No such file or directory
Processor 154: field transfer
--> FOAM Warning : 
    From void* Foam::dlLibraryTable::openLibrary(const Foam::fileName&, bool)
    in file db/dynamicLibrary/dlLibraryTable/dlLibraryTable.C at line 188
    Could not load "libpetscFoam.so"
libpetscFoam.so: cannot open shared object file: No such file or directory
Processor 155: field transfer
--> FOAM Warning : 
    From void* Foam::dlLibraryTable::openLibrary(const Foam::fileName&, bool)
    in file db/dynamicLibrary/dlLibraryTable/dlLibraryTable.C at line 188
    Could not load "libpetscFoam.so"
libpetscFoam.so: cannot open shared object file: No such file or directory
Processor 156: field transfer
--> FOAM Warning : 
    From void* Foam::dlLibraryTable::openLibrary(const Foam::fileName&, bool)
    in file db/dynamicLibrary/dlLibraryTable/dlLibraryTable.C at line 188
    Could not load "libpetscFoam.so"
libpetscFoam.so: cannot open shared object file: No such file or directory
Processor 157: field transfer
--> FOAM Warning : 
    From void* Foam::dlLibraryTable::openLibrary(const Foam::fileName&, bool)
    in file db/dynamicLibrary/dlLibraryTable/dlLibraryTable.C at line 188
    Could not load "libpetscFoam.so"
libpetscFoam.so: cannot open shared object file: No such file or directory
Processor 158: field transfer
--> FOAM Warning : 
    From void* Foam::dlLibraryTable::openLibrary(const Foam::fileName&, bool)
    in file db/dynamicLibrary/dlLibraryTable/dlLibraryTable.C at line 188
    Could not load "libpetscFoam.so"
libpetscFoam.so: cannot open shared object file: No such file or directory
Processor 159: field transfer
--> FOAM Warning : 
    From void* Foam::dlLibraryTable::openLibrary(const Foam::fileName&, bool)
    in file db/dynamicLibrary/dlLibraryTable/dlLibraryTable.C at line 188
    Could not load "libpetscFoam.so"
libpetscFoam.so: cannot open shared object file: No such file or directory

End

