/*---------------------------------------------------------------------------*\
| =========                 |                                                 |
| \\      /  F ield         | OpenFOAM: The Open Source CFD Toolbox           |
|  \\    /   O peration     | Version:  2306                                  |
|   \\  /    A nd           | Website:  www.openfoam.com                      |
|    \\/     M anipulation  |                                                 |
\*---------------------------------------------------------------------------*/
Build  : c423ebec-20231012 OPENFOAM=2306 version=v2306
Arch   : "LSB;label=32;scalar=64"
Exec   : simpleFoam -parallel -case /hkfs/work/workspace/scratch/eq4036-windsorbody_setup/workspace/2e1570896017010d1dcd8e26d491af77/case
Date   : Feb 16 2024
Time   : 20:32:43
Host   : hkn0422.localdomain
PID    : 919833
I/O    : uncollated
Case   : /hkfs/work/workspace/scratch/eq4036-windsorbody_setup/workspace/2e1570896017010d1dcd8e26d491af77/case
nProcs : 12
Hosts  :
(
    (hkn0422.localdomain 6)
    (hkn0423.localdomain 6)
)
Pstream initialized with:
    floatTransfer      : false
    nProcsSimpleSum    : 0
    nonBlockingExchange: 0 (tuning: 0)
    exchange algorithm : -1
    commsType          : nonBlocking
    polling iterations : 0
trapFpe: Floating point exception trapping enabled (FOAM_SIGFPE).
fileModificationChecking : Monitoring run-time modified files using timeStampMaster (fileModificationSkew 5, maxFileModificationPolls 20)
allowSystemOperations : Allowing user-supplied system call operations

// * * * * * * * * * * * * * * * * * * * * * * * * * * * * * * * * * * * * * //
Create time

--> FOAM Warning : 
    From void* Foam::dlLibraryTable::openLibrary(const Foam::fileName&, bool)
    in file db/dynamicLibrary/dlLibraryTable/dlLibraryTable.C at line 188
    Could not load "libpetscFoam.so"
libpetscFoam.so: cannot open shared object file: No such file or directory
Create mesh for time = 0


SIMPLE: convergence criteria
    field p	 tolerance 1e-08
    field U	 tolerance 1e-08
    field k	 tolerance 1e-08
    field omega	 tolerance 1e-08
    field nuTilda	 tolerance 1e-08

Reading field p

Reading field U

Reading/calculating face flux field phi

Selecting incompressible transport model Newtonian
Selecting turbulence model type RAS
Selecting RAS turbulence model SpalartAllmaras
Selecting patchDistMethod meshWave
ft2 term: inactive
RAS
{
    RASModel        SpalartAllmaras;
    turbulence      on;
    printCoeffs     on;
    sigmaNut        0.66666;
    kappa           0.41;
    Cb1             0.1355;
    Cb2             0.622;
    Cw2             0.3;
    Cw3             2;
    Cv1             7.1;
    Cs              0.3;
    ck              0.07000000000000001;
    ft2             false;
    Ct3             1.2;
    Ct4             0.5;
}

No MRF models present

Creating finite volume options from "system/fvOptions"

Selecting finite volume options type velocityDampingConstraint
    Source: velocityDamping
    - selecting all cells
    - selected 50457088 cell(s) with volume 222.6066441270595

Starting time loop

--> FOAM Warning : 
    From bool Foam::functionObjectList::read()
    in file db/functionObjects/functionObjectList/functionObjectList.C at line 1035
    Reading "system/controlDict" at line 2 to 41
    Entry 'lref' is not a dictionary
--> FOAM Warning : 
    From bool Foam::functionObjectList::read()
    in file db/functionObjects/functionObjectList/functionObjectList.C at line 1035
    Reading "system/controlDict" at line 2 to 41
    Entry 'Aref' is not a dictionary
--> FOAM Warning : 
    From bool Foam::functionObjectList::read()
    in file db/functionObjects/functionObjectList/functionObjectList.C at line 1035
    Reading "system/controlDict" at line 2 to 41
    Entry 'yawAngle' is not a dictionary
--> FOAM Warning : 
    From bool Foam::functionObjectList::read()
    in file db/functionObjects/functionObjectList/functionObjectList.C at line 1035
    Reading "system/controlDict" at line 2 to 41
    Entry 'lDomain' is not a dictionary
--> FOAM Warning : 
    From bool Foam::functionObjectList::read()
    in file db/functionObjects/functionObjectList/functionObjectList.C at line 1035
    Reading "system/controlDict" at line 2 to 41
    Entry 'bDomain' is not a dictionary
--> FOAM Warning : 
    From bool Foam::functionObjectList::read()
    in file db/functionObjects/functionObjectList/functionObjectList.C at line 1035
    Reading "system/controlDict" at line 2 to 41
    Entry 'hDomain' is not a dictionary
--> FOAM Warning : 
    From bool Foam::functionObjectList::read()
    in file db/functionObjects/functionObjectList/functionObjectList.C at line 1035
    Reading "system/controlDict" at line 2 to 41
    Entry 'xCenter' is not a dictionary
--> FOAM Warning : 
    From bool Foam::functionObjectList::read()
    in file db/functionObjects/functionObjectList/functionObjectList.C at line 1035
    Reading "system/controlDict" at line 2 to 41
    Entry 'yCenter' is not a dictionary
--> FOAM Warning : 
    From bool Foam::functionObjectList::read()
    in file db/functionObjects/functionObjectList/functionObjectList.C at line 1035
    Reading "system/controlDict" at line 2 to 41
    Entry 'zCenter' is not a dictionary
--> FOAM Warning : 
    From bool Foam::functionObjectList::read()
    in file db/functionObjects/functionObjectList/functionObjectList.C at line 1035
    Reading "system/controlDict" at line 2 to 41
    Entry 'inletPatch' is not a dictionary
--> FOAM Warning : 
    From bool Foam::functionObjectList::read()
    in file db/functionObjects/functionObjectList/functionObjectList.C at line 1035
    Reading "system/controlDict" at line 2 to 41
    Entry 'outletPatch' is not a dictionary
--> FOAM Warning : 
    From bool Foam::functionObjectList::read()
    in file db/functionObjects/functionObjectList/functionObjectList.C at line 1035
    Reading "system/controlDict" at line 2 to 41
    Entry 'wallPatches' is not a dictionary
--> FOAM Warning : 
    From bool Foam::functionObjectList::read()
    in file db/functionObjects/functionObjectList/functionObjectList.C at line 1035
    Reading "system/controlDict" at line 2 to 41
    Entry 'forcesWallPatches' is not a dictionary
--> FOAM Warning : 
    From bool Foam::functionObjectList::read()
    in file db/functionObjects/functionObjectList/functionObjectList.C at line 1035
    Reading "system/controlDict" at line 2 to 41
    Entry 'symmPatches' is not a dictionary
--> FOAM Warning : 
    From bool Foam::functionObjectList::read()
    in file db/functionObjects/functionObjectList/functionObjectList.C at line 1035
    Reading "system/controlDict" at line 2 to 41
    Entry 'Uinf' is not a dictionary
--> FOAM Warning : 
    From bool Foam::functionObjectList::read()
    in file db/functionObjects/functionObjectList/functionObjectList.C at line 1035
    Reading "system/controlDict" at line 2 to 41
    Entry 'UinfMag' is not a dictionary
--> FOAM Warning : 
    From bool Foam::functionObjectList::read()
    in file db/functionObjects/functionObjectList/functionObjectList.C at line 1035
    Reading "system/controlDict" at line 2 to 41
    Entry 'nu' is not a dictionary
--> FOAM Warning : 
    From bool Foam::functionObjectList::read()
    in file db/functionObjects/functionObjectList/functionObjectList.C at line 1035
    Reading "system/controlDict" at line 2 to 41
    Entry 'pref' is not a dictionary
--> FOAM Warning : 
    From bool Foam::functionObjectList::read()
    in file db/functionObjects/functionObjectList/functionObjectList.C at line 1035
    Reading "system/controlDict" at line 2 to 41
    Entry 'viscRatio' is not a dictionary
--> FOAM Warning : 
    From bool Foam::functionObjectList::read()
    in file db/functionObjects/functionObjectList/functionObjectList.C at line 1035
    Reading "system/controlDict" at line 2 to 41
    Entry 'Tu' is not a dictionary
--> FOAM Warning : 
    From bool Foam::functionObjectList::read()
    in file db/functionObjects/functionObjectList/functionObjectList.C at line 1035
    Reading "system/controlDict" at line 2 to 41
    Entry 'LESturbModel' is not a dictionary
--> FOAM Warning : 
    From bool Foam::functionObjectList::read()
    in file db/functionObjects/functionObjectList/functionObjectList.C at line 1035
    Reading "system/controlDict" at line 2 to 41
    Entry 'RASturbModel' is not a dictionary
--> FOAM Warning : 
    From bool Foam::functionObjectList::read()
    in file db/functionObjects/functionObjectList/functionObjectList.C at line 1035
    Reading "system/controlDict" at line 2 to 41
    Entry 'deltaTurb' is not a dictionary
--> FOAM Warning : 
    From bool Foam::functionObjectList::read()
    in file db/functionObjects/functionObjectList/functionObjectList.C at line 1035
    Reading "system/controlDict" at line 2 to 41
    Entry 'dt' is not a dictionary
--> FOAM Warning : 
    From bool Foam::functionObjectList::read()
    in file db/functionObjects/functionObjectList/functionObjectList.C at line 1035
    Reading "system/controlDict" at line 2 to 41
    Entry 'tAvg' is not a dictionary
--> FOAM Warning : 
    From bool Foam::functionObjectList::read()
    in file db/functionObjects/functionObjectList/functionObjectList.C at line 1035
    Reading "system/controlDict" at line 2 to 41
    Entry 'tEnd' is not a dictionary
--> FOAM Warning : 
    From bool Foam::functionObjectList::read()
    in file db/functionObjects/functionObjectList/functionObjectList.C at line 1035
    Reading "system/controlDict" at line 2 to 41
    Entry 'writeInterval_' is not a dictionary
--> FOAM Warning : 
    From bool Foam::functionObjectList::read()
    in file db/functionObjects/functionObjectList/functionObjectList.C at line 1035
    Reading "system/controlDict" at line 2 to 41
    Entry 'nCores' is not a dictionary
--> FOAM Warning : 
    From bool Foam::functionObjectList::read()
    in file db/functionObjects/functionObjectList/functionObjectList.C at line 1035
    Reading "system/controlDict" at line 2 to 41
    Entry 'interpScheme' is not a dictionary
--> FOAM Warning : 
    From bool Foam::functionObjectList::read()
    in file db/functionObjects/functionObjectList/functionObjectList.C at line 1035
    Reading "system/controlDict" at line 2 to 41
    Entry 'probeField' is not a dictionary
wallShearStress wallShearStress:
    processing wall patches: 
        Windsor_Body
        CFDWT_Floor
        Windsor_Pins
        Windsor_Base
        Windsor_Body_2
        CFDWT_Floor_2
        Windsor_Pins_2
        Windsor_Base_2
        Windsor_Body_3
        CFDWT_Floor_3
        Windsor_Pins_3
        Windsor_Base_3
        Windsor_Body_4
        CFDWT_Floor_4
        Windsor_Pins_4
        Windsor_Base_4
        Windsor_Body_5
        CFDWT_Floor_5
        Windsor_Pins_5
        Windsor_Base_5
        Windsor_Body_6
        CFDWT_Floor_6
        Windsor_Pins_6
        Windsor_Base_6
        Windsor_Body_7
        CFDWT_Floor_7
        Windsor_Pins_7
        Windsor_Base_7
        Windsor_Body_8
        CFDWT_Floor_8
        Windsor_Pins_8
        Windsor_Base_8

pressure calc_cp:
    Operating mode: staticCoeff
    Not including hydrostatic effects

forceCoeffs forceCoeffsAll:
    rho: rhoInf
    Freestream density (rhoInf) set to 1
    Not including porosity effects
    magUInf: 40
    lRef   : 0.6375
    Aref   : 0.1124
    rhoInf : 1
    Selecting all coefficients
    - Drag force: Cd
    - Drag force front: Cd(f)
    - Drag force rear: Cd(r)
    - Lift force: Cl
    - Lift force front: Cl(f)
    - Lift force rear: Cl(r)
    - Pitch moment: CmPitch
    - Roll moment: CmRoll
    - Yaw moment: CmYaw
    - Side force: Cs
    - Side force front: Cs(f)
    - Side force rear: Cs(r)


forceCoeffs dragCoeffBase:
    rho: rhoInf
    Freestream density (rhoInf) set to 1
    Not including porosity effects
    magUInf: 40
    lRef   : 0.6375
    Aref   : 0.1124
    rhoInf : 1
    Selecting coefficients:
    - Drag force: Cd


Time = 1

velocityDampingConstraint velocityDamping damped 0 (0%) of cells, with max limit 300
[OGL LOG][lduLduBase.H:119] Initialising OGL
	OGL commit:  e75313f+
	Branch: dev 
	Build type: Debug
	Ginkgo version: 1.8.0 ( develop)
	Ginkgo commit: sparse-communicator
	MPI is GPU aware: 1
	Forces host buffer based communication: 0
	CPU ranks per GPU: 1
	Matrix format: Coo
	End OGL_INFO
[OGL LOG][Proc: 0]: global_index_init: 0.588 [ms]
[OGL LOG][Proc: 0]Ux_local_cols: call_init: 0.757 [ms]
[OGL LOG][Proc: 0]Ux_local_rows: call_init: 0.282 [ms]
[OGL LOG][Proc: 0]Ux_local_ldu_map: call_init: 0.385 [ms]
[OGL LOG][Proc: 0]Ux_local_coeffs: call_init: 4.15 [ms]
[OGL LOG][Proc: 0]Ux_non_local_cols: call_init: 0.399 [ms]
[OGL LOG][Proc: 0]Ux_non_local_rows: call_init: 0.174 [ms]
[OGL LOG][Proc: 0]Ux_non_local_ldu_map: call_init: 0.122 [ms]
[OGL LOG][Proc: 0]Ux_non_local_coeffs: call_init: 0.289 [ms]
[OGL LOG][Proc: 0]Ux: init_local_sparsity_pattern: 194211.667 [ms]
[OGL LOG][Proc: 0]Ux: init_non_local_sparsity_pattern: 128.526 [ms]
[OGL LOG][Proc: 0]Ux: update_local_matrix_data: 211.301 [ms]
[OGL LOG][Proc: 0]Ux: update_non_local_matrix_data: 1.543 [ms]
[OGL LOG][Proc: 0]device_partition: call_init: 0.279 [ms]
[OGL LOG][Proc: 0]Ux_matrix: call_init: 381.953 [ms]
[OGL LOG][Proc: 0]Ux_rhs: call_init: 11.112 [ms]
[OGL LOG][Proc: 0]Ux_solution: call_init: 11.418 [ms]
[OGL LOG][Preconditioner.H:121] Generate preconditioner BJ MaxBlockSize 1
[OGL LOG][Proc: 0]Ux: init_precond: 12.342 [ms]
[OGL LOG][StoppingCriterion.H:239] Creating stopping criterion with minIter 0 frequency 1
[OGL LOG][Proc: 0]Ux: generate_solver: 0.379 [ms]
[OGL LOG][Proc: 0]Ux: solve: 307.584 [ms]
[OGL LOG][Proc: 0]Ux: copy_x_back: 17.701 [ms]
[OGL LOG][lduLduBase.H:330] 
Statistics:
	Time per iteration: 43940 [mu s]
	Time per residual norm calculation: 4960.000000 [mu s]
	Time per iteration and DOF: 0.870839 [ns]
	Retrieve results bandwidth 1.910000 [GByte/s]
[OGL LOG][Proc: 0]Ux: solve_multi_gpu: 992.799 [ms]
BJcudaGKOBiCGStab:  Solving for Ux, Initial residual = 1.000000000001701, Final residual = 0.04568491065504857, No Iterations 7
[OGL LOG][lduLduBase.H:119] Initialising OGL
	OGL commit:  e75313f+
	Branch: dev 
	Build type: Debug
	Ginkgo version: 1.8.0 ( develop)
	Ginkgo commit: sparse-communicator
	MPI is GPU aware: 1
	Forces host buffer based communication: 0
	CPU ranks per GPU: 1
	Matrix format: Coo
	End OGL_INFO
[OGL LOG][Proc: 0]: global_index_init: 2.493 [ms]
[OGL LOG][Proc: 0]Uy_local_cols: call_init: 0.041 [ms]
[OGL LOG][Proc: 0]Uy_local_rows: call_init: 0.019 [ms]
[OGL LOG][Proc: 0]Uy_local_ldu_map: call_init: 0.019 [ms]
[OGL LOG][Proc: 0]Uy_local_coeffs: call_init: 1.251 [ms]
[OGL LOG][Proc: 0]Uy_non_local_cols: call_init: 0.028 [ms]
[OGL LOG][Proc: 0]Uy_non_local_rows: call_init: 0.012 [ms]
[OGL LOG][Proc: 0]Uy_non_local_ldu_map: call_init: 0.019 [ms]
[OGL LOG][Proc: 0]Uy_non_local_coeffs: call_init: 0.008999999999999999 [ms]
[OGL LOG][Proc: 0]Uy: init_local_sparsity_pattern: 194194.515 [ms]
[OGL LOG][Proc: 0]Uy: init_non_local_sparsity_pattern: 128.376 [ms]
[OGL LOG][Proc: 0]Uy: update_local_matrix_data: 177.175 [ms]
[OGL LOG][Proc: 0]Uy: update_non_local_matrix_data: 1.163 [ms]
[OGL LOG][Proc: 0]Uy_matrix: call_init: 382.389 [ms]
[OGL LOG][Proc: 0]Uy_rhs: call_init: 11.467 [ms]
[OGL LOG][Proc: 0]Uy_solution: call_init: 11.605 [ms]
[OGL LOG][Preconditioner.H:121] Generate preconditioner BJ MaxBlockSize 1
[OGL LOG][Proc: 0]Uy: init_precond: 2.176 [ms]
[OGL LOG][StoppingCriterion.H:239] Creating stopping criterion with minIter 0 frequency 1
[OGL LOG][Proc: 0]Uy: generate_solver: 0.025 [ms]
[OGL LOG][Proc: 0]Uy: solve: 334.253 [ms]
[OGL LOG][Proc: 0]Uy: copy_x_back: 17.404 [ms]
[OGL LOG][lduLduBase.H:330] 
Statistics:
	Time per iteration: 33425 [mu s]
	Time per residual norm calculation: 1865.000000 [mu s]
	Time per iteration and DOF: 0.662444 [ns]
	Retrieve results bandwidth 1.943000 [GByte/s]
[OGL LOG][Proc: 0]Uy: solve_multi_gpu: 1012.472 [ms]
BJcudaGKOBiCGStab:  Solving for Uy, Initial residual = 0.9999999999999836, Final residual = 0.07725065440062977, No Iterations 10
[OGL LOG][lduLduBase.H:119] Initialising OGL
	OGL commit:  e75313f+
	Branch: dev 
	Build type: Debug
	Ginkgo version: 1.8.0 ( develop)
	Ginkgo commit: sparse-communicator
	MPI is GPU aware: 1
	Forces host buffer based communication: 0
	CPU ranks per GPU: 1
	Matrix format: Coo
	End OGL_INFO
[OGL LOG][Proc: 0]: global_index_init: 0.618 [ms]
[OGL LOG][Proc: 0]Uz_local_cols: call_init: 0.046 [ms]
[OGL LOG][Proc: 0]Uz_local_rows: call_init: 0.026 [ms]
[OGL LOG][Proc: 0]Uz_local_ldu_map: call_init: 0.013 [ms]
[OGL LOG][Proc: 0]Uz_local_coeffs: call_init: 1.268 [ms]
[OGL LOG][Proc: 0]Uz_non_local_cols: call_init: 0.013 [ms]
[OGL LOG][Proc: 0]Uz_non_local_rows: call_init: 0.005 [ms]
[OGL LOG][Proc: 0]Uz_non_local_ldu_map: call_init: 0.003 [ms]
[OGL LOG][Proc: 0]Uz_non_local_coeffs: call_init: 0.008 [ms]
[OGL LOG][Proc: 0]Uz: init_local_sparsity_pattern: 194194.936 [ms]
[OGL LOG][Proc: 0]Uz: init_non_local_sparsity_pattern: 128.199 [ms]
[OGL LOG][Proc: 0]Uz: update_local_matrix_data: 177.166 [ms]
[OGL LOG][Proc: 0]Uz: update_non_local_matrix_data: 1.19 [ms]
[OGL LOG][Proc: 0]Uz_matrix: call_init: 383.53 [ms]
[OGL LOG][Proc: 0]Uz_rhs: call_init: 11.567 [ms]
[OGL LOG][Proc: 0]Uz_solution: call_init: 12.84 [ms]
[OGL LOG][Preconditioner.H:121] Generate preconditioner BJ MaxBlockSize 1
[OGL LOG][Proc: 0]Uz: init_precond: 2.075 [ms]
[OGL LOG][StoppingCriterion.H:239] Creating stopping criterion with minIter 0 frequency 1
[OGL LOG][Proc: 0]Uz: generate_solver: 0.028 [ms]
[OGL LOG][Proc: 0]Uz: solve: 277.343 [ms]
[OGL LOG][Proc: 0]Uz: copy_x_back: 17.684 [ms]
[OGL LOG][lduLduBase.H:330] 
Statistics:
	Time per iteration: 277343 [mu s]
	Time per residual norm calculation: 1813.000000 [mu s]
	Time per iteration and DOF: 5.496611 [ns]
	Retrieve results bandwidth 1.912000 [GByte/s]
[OGL LOG][Proc: 0]Uz: solve_multi_gpu: 954.519 [ms]
BJcudaGKOBiCGStab:  Solving for Uz, Initial residual = 1.000000000000016, Final residual = 0.07317246117890994, No Iterations 1
[OGL LOG][lduLduBase.H:119] Initialising OGL
	OGL commit:  e75313f+
	Branch: dev 
	Build type: Debug
	Ginkgo version: 1.8.0 ( develop)
	Ginkgo commit: sparse-communicator
	MPI is GPU aware: 1
	Forces host buffer based communication: 0
	CPU ranks per GPU: 1
	Matrix format: Coo
	End OGL_INFO
[OGL LOG][Proc: 0]: global_index_init: 0.036 [ms]
[OGL LOG][Proc: 0]p_local_cols: call_init: 1.057 [ms]
[OGL LOG][Proc: 0]p_local_rows: call_init: 0.614 [ms]
[OGL LOG][Proc: 0]p_local_ldu_map: call_init: 0.6850000000000001 [ms]
[OGL LOG][Proc: 0]p_local_coeffs: call_init: 1.858 [ms]
[OGL LOG][Proc: 0]p_non_local_cols: call_init: 0.625 [ms]
[OGL LOG][Proc: 0]p_non_local_rows: call_init: 0.541 [ms]
[OGL LOG][Proc: 0]p_non_local_ldu_map: call_init: 0.656 [ms]
[OGL LOG][Proc: 0]p_non_local_coeffs: call_init: 0.114 [ms]
[OGL LOG][Proc: 0]p: init_local_sparsity_pattern: 191177.557 [ms]
[OGL LOG][Proc: 0]p: init_non_local_sparsity_pattern: 128.128 [ms]
[OGL LOG][Proc: 0]p: update_local_matrix_data: 137.002 [ms]
[OGL LOG][Proc: 0]p: update_non_local_matrix_data: 1.32 [ms]
[OGL LOG][Proc: 0]p_matrix: call_init: 383.856 [ms]
[OGL LOG][Proc: 0]p_rhs: call_init: 11.686 [ms]
[OGL LOG][Proc: 0]p_solution: call_init: 11.644 [ms]
[OGL LOG][Preconditioner.H:121] Generate preconditioner BJ MaxBlockSize 1
[OGL LOG][Proc: 0]p: init_precond: 2.183 [ms]
[OGL LOG][StoppingCriterion.H:239] Creating stopping criterion with minIter 0 frequency 1
[OGL LOG][Proc: 0]p: generate_solver: 0.083 [ms]
[OGL LOG][Proc: 0]p: solve: 6783.336 [ms]
[OGL LOG][Proc: 0]p: copy_x_back: 17.793 [ms]
[OGL LOG][lduLduBase.H:330] 
Statistics:
	Time per iteration: 5592 [mu s]
	Time per residual norm calculation: 1032.000000 [mu s]
	Time per iteration and DOF: 0.110827 [ns]
	Retrieve results bandwidth 1.900000 [GByte/s]
[OGL LOG][Proc: 0]p: solve_multi_gpu: 7461.513 [ms]
BJcudaGKOCG:  Solving for p, Initial residual = 1.000000000001354, Final residual = 0.009999473732239566, No Iterations 1213
time step continuity errors : sum local = 0.003623427995156724, global = 7.825886208297254e-06, cumulative = 7.825886208297254e-06
[OGL LOG][lduLduBase.H:119] Initialising OGL
	OGL commit:  e75313f+
	Branch: dev 
	Build type: Debug
	Ginkgo version: 1.8.0 ( develop)
	Ginkgo commit: sparse-communicator
	MPI is GPU aware: 1
	Forces host buffer based communication: 0
	CPU ranks per GPU: 1
	Matrix format: Coo
	End OGL_INFO
[OGL LOG][Proc: 0]: global_index_init: 0.028 [ms]
[OGL LOG][Proc: 0]nuTilda_local_cols: call_init: 0.076 [ms]
[OGL LOG][Proc: 0]nuTilda_local_rows: call_init: 0.012 [ms]
[OGL LOG][Proc: 0]nuTilda_local_ldu_map: call_init: 0.011 [ms]
[OGL LOG][Proc: 0]nuTilda_local_coeffs: call_init: 1.282 [ms]
[OGL LOG][Proc: 0]nuTilda_non_local_cols: call_init: 0.033 [ms]
[OGL LOG][Proc: 0]nuTilda_non_local_rows: call_init: 0.011 [ms]
[OGL LOG][Proc: 0]nuTilda_non_local_ldu_map: call_init: 0.008999999999999999 [ms]
[OGL LOG][Proc: 0]nuTilda_non_local_coeffs: call_init: 0.015 [ms]
[OGL LOG][Proc: 0]nuTilda: init_local_sparsity_pattern: 190845.577 [ms]
[OGL LOG][Proc: 0]nuTilda: init_non_local_sparsity_pattern: 127.814 [ms]
[OGL LOG][Proc: 0]nuTilda: update_local_matrix_data: 174.61 [ms]
[OGL LOG][Proc: 0]nuTilda: update_non_local_matrix_data: 1.039 [ms]
[OGL LOG][Proc: 0]nuTilda_matrix: call_init: 389.113 [ms]
[OGL LOG][Proc: 0]nuTilda_rhs: call_init: 11.244 [ms]
[OGL LOG][Proc: 0]nuTilda_solution: call_init: 13.067 [ms]
[OGL LOG][Preconditioner.H:121] Generate preconditioner BJ MaxBlockSize 1
[OGL LOG][Proc: 0]nuTilda: init_precond: 2.114 [ms]
[OGL LOG][StoppingCriterion.H:239] Creating stopping criterion with minIter 0 frequency 1
[OGL LOG][Proc: 0]nuTilda: generate_solver: 0.025 [ms]
[OGL LOG][Proc: 0]nuTilda: solve: 286.278 [ms]
[OGL LOG][Proc: 0]nuTilda: copy_x_back: 17.785 [ms]
[OGL LOG][lduLduBase.H:330] 
Statistics:
	Time per iteration: 95426 [mu s]
	Time per residual norm calculation: 1998.000000 [mu s]
	Time per iteration and DOF: 1.891231 [ns]
	Retrieve results bandwidth 1.901000 [GByte/s]
[OGL LOG][Proc: 0]nuTilda: solve_multi_gpu: 969.408 [ms]
BJcudaGKOBiCGStab:  Solving for nuTilda, Initial residual = 0.9999999932281077, Final residual = 0.0340342405297323, No Iterations 3
bounding nuTilda, min: -0.0003647943196265114 max: 0.001587309242601454 average: 7.142143896509513e-05
ExecutionTime = 1035.3 s  ClockTime = 1037 s

--> FOAM Warning : 
    From virtual bool Foam::functionObjects::fieldSelection::checkSelection()
    in file functionObjects/fieldSelections/fieldSelection/fieldSelection.C at line 166
    Field k not found
--> FOAM Warning : 
    From virtual bool Foam::functionObjects::fieldSelection::checkSelection()
    in file functionObjects/fieldSelections/fieldSelection/fieldSelection.C at line 166
    Field gammaInt not found
--> FOAM Warning : 
    From virtual bool Foam::functionObjects::fieldSelection::checkSelection()
    in file functionObjects/fieldSelections/fieldSelection/fieldSelection.C at line 166
    Field omega not found
--> FOAM Warning : 
    From virtual bool Foam::functionObjects::fieldSelection::checkSelection()
    in file functionObjects/fieldSelections/fieldSelection/fieldSelection.C at line 166
    Field ReThetat not found
--> FOAM Warning : 
    From virtual bool Foam::functionObjects::fieldSelection::checkSelection()
    in file functionObjects/fieldSelections/fieldSelection/fieldSelection.C at line 166
    Field epsilon not found
--> FOAM Warning : 
    From virtual bool Foam::functionObjects::solverFieldSelection::updateSelection()
    in file functionObjects/fieldSelections/solverFieldSelection/solverFieldSelection.C at line 85
    Valid solver fields are: 3(U nuTilda p)Time = 2

velocityDampingConstraint velocityDamping damped 0 (0%) of cells, with max limit 300
[OGL LOG][Proc: 0]: global_index_init: 0.25 [ms]
[OGL LOG][Proc: 0]Ux_local_coeffs: call_update: 0.001 [ms]
[OGL LOG][Proc: 0]Ux_non_local_coeffs: call_update: 0 [ms]
[OGL LOG][Proc: 0]Ux: update_local_matrix_data: 227.137 [ms]
[OGL LOG][Proc: 0]Ux: update_non_local_matrix_data: 1.107 [ms]
[OGL LOG][Proc: 0]Ux_matrix: call_update: 4.972 [ms]
[OGL LOG][Proc: 0]Ux_rhs: call_update: 11.199 [ms]
[OGL LOG][Preconditioner.H:121] Generate preconditioner BJ MaxBlockSize 1
[OGL LOG][Proc: 0]Ux: init_precond: 2.368 [ms]
[OGL LOG][StoppingCriterion.H:239] Creating stopping criterion with minIter 8 frequency 1
[OGL LOG][Proc: 0]Ux: generate_solver: 0.025 [ms]
[OGL LOG][Proc: 0]Ux: solve: 246.012 [ms]
[OGL LOG][Proc: 0]Ux: copy_x_back: 17.623 [ms]
[OGL LOG][lduLduBase.H:330] 
Statistics:
	Time per iteration: 61503 [mu s]
	Time per residual norm calculation: 1279.000000 [mu s]
	Time per iteration and DOF: 1.218917 [ns]
	Retrieve results bandwidth 1.919000 [GByte/s]
[OGL LOG][Proc: 0]Ux: solve_multi_gpu: 291.887 [ms]
BJcudaGKOBiCGStab:  Solving for Ux, Initial residual = 0.8166649472907673, Final residual = 0.009472785071128791, No Iterations 4
[OGL LOG][Proc: 0]: global_index_init: 0.24 [ms]
[OGL LOG][Proc: 0]Uy_local_coeffs: call_update: 0 [ms]
[OGL LOG][Proc: 0]Uy_non_local_coeffs: call_update: 0 [ms]
[OGL LOG][Proc: 0]Uy: update_local_matrix_data: 226.554 [ms]
[OGL LOG][Proc: 0]Uy: update_non_local_matrix_data: 1.145 [ms]
[OGL LOG][Proc: 0]Uy_matrix: call_update: 4.829 [ms]
[OGL LOG][Proc: 0]Uy_rhs: call_update: 11.063 [ms]
[OGL LOG][Preconditioner.H:121] Generate preconditioner BJ MaxBlockSize 1
[OGL LOG][Proc: 0]Uy: init_precond: 2.13 [ms]
[OGL LOG][StoppingCriterion.H:239] Creating stopping criterion with minIter 12 frequency 1
[OGL LOG][Proc: 0]Uy: generate_solver: 0.016 [ms]
[OGL LOG][Proc: 0]Uy: solve: 260.682 [ms]
[OGL LOG][Proc: 0]Uy: copy_x_back: 17.441 [ms]
[OGL LOG][lduLduBase.H:330] 
Statistics:
	Time per iteration: 43447 [mu s]
	Time per residual norm calculation: 1292.000000 [mu s]
	Time per iteration and DOF: 0.861068 [ns]
	Retrieve results bandwidth 1.939000 [GByte/s]
[OGL LOG][Proc: 0]Uy: solve_multi_gpu: 308.258 [ms]
BJcudaGKOBiCGStab:  Solving for Uy, Initial residual = 0.9994013098655625, Final residual = 0.07900500430166792, No Iterations 6
[OGL LOG][Proc: 0]: global_index_init: 0.324 [ms]
[OGL LOG][Proc: 0]Uz_local_coeffs: call_update: 0 [ms]
[OGL LOG][Proc: 0]Uz_non_local_coeffs: call_update: 0 [ms]
[OGL LOG][Proc: 0]Uz: update_local_matrix_data: 229.308 [ms]
[OGL LOG][Proc: 0]Uz: update_non_local_matrix_data: 1.121 [ms]
[OGL LOG][Proc: 0]Uz_matrix: call_update: 5.323 [ms]
[OGL LOG][Proc: 0]Uz_rhs: call_update: 10.541 [ms]
[OGL LOG][Preconditioner.H:121] Generate preconditioner BJ MaxBlockSize 1
[OGL LOG][Proc: 0]Uz: init_precond: 2.428 [ms]
[OGL LOG][StoppingCriterion.H:239] Creating stopping criterion with minIter 1 frequency 1
[OGL LOG][Proc: 0]Uz: generate_solver: 0.015 [ms]
[OGL LOG][Proc: 0]Uz: solve: 224.851 [ms]
[OGL LOG][Proc: 0]Uz: copy_x_back: 17.981 [ms]
[OGL LOG][lduLduBase.H:330] 
Statistics:
	Time per iteration: 112425 [mu s]
	Time per residual norm calculation: 1432.000000 [mu s]
	Time per iteration and DOF: 2.228131 [ns]
	Retrieve results bandwidth 1.880000 [GByte/s]
[OGL LOG][Proc: 0]Uz: solve_multi_gpu: 269.371 [ms]
BJcudaGKOBiCGStab:  Solving for Uz, Initial residual = 0.99999905852939, Final residual = 0.09491872396269856, No Iterations 2
[OGL LOG][Proc: 0]: global_index_init: 0.036 [ms]
[OGL LOG][Proc: 0]p_local_coeffs: call_update: 0 [ms]
[OGL LOG][Proc: 0]p_non_local_coeffs: call_update: 0 [ms]
[OGL LOG][Proc: 0]p: update_local_matrix_data: 177.204 [ms]
[OGL LOG][Proc: 0]p: update_non_local_matrix_data: 1.21 [ms]
[OGL LOG][Proc: 0]p_matrix: call_update: 5.28 [ms]
[OGL LOG][Proc: 0]p_rhs: call_update: 11.279 [ms]
[OGL LOG][Preconditioner.H:121] Generate preconditioner BJ MaxBlockSize 1
[OGL LOG][Proc: 0]p: init_precond: 2.315 [ms]
[OGL LOG][StoppingCriterion.H:239] Creating stopping criterion with minIter 727 frequency 9
[OGL LOG][Proc: 0]p: generate_solver: 0.024 [ms]
[OGL LOG][Proc: 0]p: solve: 4103.551 [ms]
[OGL LOG][Proc: 0]p: copy_x_back: 17.956 [ms]
[OGL LOG][lduLduBase.H:330] 
Statistics:
	Time per iteration: 4465 [mu s]
	Time per residual norm calculation: 1450.000000 [mu s]
	Time per iteration and DOF: 0.088491 [ns]
	Retrieve results bandwidth 1.883000 [GByte/s]
[OGL LOG][Proc: 0]p: solve_multi_gpu: 4147.928 [ms]
BJcudaGKOCG:  Solving for p, Initial residual = 0.4265182645562139, Final residual = 0.003944193695327401, No Iterations 919
time step continuity errors : sum local = 0.08526477169119832, global = 0.004627839730726978, cumulative = 0.004635665616935275
[OGL LOG][Proc: 0]: global_index_init: 0.027 [ms]
[OGL LOG][Proc: 0]nuTilda_local_coeffs: call_update: 0 [ms]
[OGL LOG][Proc: 0]nuTilda_non_local_coeffs: call_update: 0 [ms]
[OGL LOG][Proc: 0]nuTilda: update_local_matrix_data: 229.069 [ms]
[OGL LOG][Proc: 0]nuTilda: update_non_local_matrix_data: 1.059 [ms]
[OGL LOG][Proc: 0]nuTilda_matrix: call_update: 4.922 [ms]
[OGL LOG][Proc: 0]nuTilda_rhs: call_update: 11.428 [ms]
[OGL LOG][Preconditioner.H:121] Generate preconditioner BJ MaxBlockSize 1
[OGL LOG][Proc: 0]nuTilda: init_precond: 2.269 [ms]
[OGL LOG][StoppingCriterion.H:239] Creating stopping criterion with minIter 3 frequency 1
[OGL LOG][Proc: 0]nuTilda: generate_solver: 0.017 [ms]
[OGL LOG][Proc: 0]nuTilda: solve: 228.783 [ms]
[OGL LOG][Proc: 0]nuTilda: copy_x_back: 17.785 [ms]
[OGL LOG][lduLduBase.H:330] 
Statistics:
	Time per iteration: 114391 [mu s]
	Time per residual norm calculation: 1411.000000 [mu s]
	Time per iteration and DOF: 2.267095 [ns]
	Retrieve results bandwidth 1.901000 [GByte/s]
[OGL LOG][Proc: 0]nuTilda: solve_multi_gpu: 272.673 [ms]
BJcudaGKOBiCGStab:  Solving for nuTilda, Initial residual = 0.2448898760086664, Final residual = 0.01659717951821219, No Iterations 2
ExecutionTime = 1058.32 s  ClockTime = 1060 s

Time = 3

velocityDampingConstraint velocityDamping damped 38955 (0.08%) of cells, with max limit 300
[OGL LOG][Proc: 0]: global_index_init: 0.289 [ms]
[OGL LOG][Proc: 0]Ux_local_coeffs: call_update: 0 [ms]
[OGL LOG][Proc: 0]Ux_non_local_coeffs: call_update: 0 [ms]
[OGL LOG][Proc: 0]Ux: update_local_matrix_data: 228.798 [ms]
[OGL LOG][Proc: 0]Ux: update_non_local_matrix_data: 1.157 [ms]
[OGL LOG][Proc: 0]Ux_matrix: call_update: 5.153 [ms]
[OGL LOG][Proc: 0]Ux_rhs: call_update: 11.437 [ms]
[OGL LOG][Preconditioner.H:121] Generate preconditioner BJ MaxBlockSize 1
[OGL LOG][Proc: 0]Ux: init_precond: 2.214 [ms]
[OGL LOG][StoppingCriterion.H:239] Creating stopping criterion with minIter 5 frequency 1
[OGL LOG][Proc: 0]Ux: generate_solver: 0.019 [ms]
[OGL LOG][Proc: 0]Ux: solve: 232.696 [ms]
[OGL LOG][Proc: 0]Ux: copy_x_back: 17.667 [ms]
[OGL LOG][lduLduBase.H:330] 
Statistics:
	Time per iteration: 77565 [mu s]
	Time per residual norm calculation: 1763.000000 [mu s]
	Time per iteration and DOF: 1.537247 [ns]
	Retrieve results bandwidth 1.914000 [GByte/s]
[OGL LOG][Proc: 0]Ux: solve_multi_gpu: 277.934 [ms]
BJcudaGKOBiCGStab:  Solving for Ux, Initial residual = 0.2851948508004687, Final residual = 0.004780064352251606, No Iterations 3
[OGL LOG][Proc: 0]: global_index_init: 12.643 [ms]
[OGL LOG][Proc: 0]Uy_local_coeffs: call_update: 0 [ms]
[OGL LOG][Proc: 0]Uy_non_local_coeffs: call_update: 0 [ms]
[OGL LOG][Proc: 0]Uy: update_local_matrix_data: 232.338 [ms]
[OGL LOG][Proc: 0]Uy: update_non_local_matrix_data: 1.152 [ms]
[OGL LOG][Proc: 0]Uy_matrix: call_update: 5.102 [ms]
[OGL LOG][Proc: 0]Uy_rhs: call_update: 11.25 [ms]
[OGL LOG][Preconditioner.H:121] Generate preconditioner BJ MaxBlockSize 1
[OGL LOG][Proc: 0]Uy: init_precond: 2.286 [ms]
[OGL LOG][StoppingCriterion.H:239] Creating stopping criterion with minIter 7 frequency 1
[OGL LOG][Proc: 0]Uy: generate_solver: 0.017 [ms]
[OGL LOG][Proc: 0]Uy: solve: 240.479 [ms]
[OGL LOG][Proc: 0]Uy: copy_x_back: 17.928 [ms]
[OGL LOG][lduLduBase.H:330] 
Statistics:
	Time per iteration: 60119 [mu s]
	Time per residual norm calculation: 1770.000000 [mu s]
	Time per iteration and DOF: 1.191488 [ns]
	Retrieve results bandwidth 1.886000 [GByte/s]
[OGL LOG][Proc: 0]Uy: solve_multi_gpu: 281.92 [ms]
BJcudaGKOBiCGStab:  Solving for Uy, Initial residual = 0.2668770068037888, Final residual = 0.007597054137500316, No Iterations 4
[OGL LOG][Proc: 0]: global_index_init: 0.231 [ms]
[OGL LOG][Proc: 0]Uz_local_coeffs: call_update: 0 [ms]
[OGL LOG][Proc: 0]Uz_non_local_coeffs: call_update: 0 [ms]
[OGL LOG][Proc: 0]Uz: update_local_matrix_data: 228.042 [ms]
[OGL LOG][Proc: 0]Uz: update_non_local_matrix_data: 1.162 [ms]
[OGL LOG][Proc: 0]Uz_matrix: call_update: 4.693 [ms]
[OGL LOG][Proc: 0]Uz_rhs: call_update: 11.163 [ms]
[OGL LOG][Preconditioner.H:121] Generate preconditioner BJ MaxBlockSize 1
[OGL LOG][Proc: 0]Uz: init_precond: 2.52 [ms]
[OGL LOG][StoppingCriterion.H:239] Creating stopping criterion with minIter 2 frequency 1
[OGL LOG][Proc: 0]Uz: generate_solver: 0.016 [ms]
[OGL LOG][Proc: 0]Uz: solve: 229.674 [ms]
[OGL LOG][Proc: 0]Uz: copy_x_back: 17.608 [ms]
[OGL LOG][lduLduBase.H:330] 
Statistics:
	Time per iteration: 114837 [mu s]
	Time per residual norm calculation: 1784.000000 [mu s]
	Time per iteration and DOF: 2.275934 [ns]
	Retrieve results bandwidth 1.920000 [GByte/s]
[OGL LOG][Proc: 0]Uz: solve_multi_gpu: 275.243 [ms]
BJcudaGKOBiCGStab:  Solving for Uz, Initial residual = 0.2542075768389331, Final residual = 0.02520303286779025, No Iterations 2
[OGL LOG][Proc: 0]: global_index_init: 0.019 [ms]
[OGL LOG][Proc: 0]p_local_coeffs: call_update: 0 [ms]
[OGL LOG][Proc: 0]p_non_local_coeffs: call_update: 0 [ms]
[OGL LOG][Proc: 0]p: update_local_matrix_data: 177.969 [ms]
[OGL LOG][Proc: 0]p: update_non_local_matrix_data: 1.119 [ms]
[OGL LOG][Proc: 0]p_matrix: call_update: 5.542 [ms]
[OGL LOG][Proc: 0]p_rhs: call_update: 11.346 [ms]
[OGL LOG][Preconditioner.H:121] Generate preconditioner BJ MaxBlockSize 1
[OGL LOG][Proc: 0]p: init_precond: 2.295 [ms]
[OGL LOG][StoppingCriterion.H:239] Creating stopping criterion with minIter 551 frequency 11
[OGL LOG][Proc: 0]p: generate_solver: 0.016 [ms]
[OGL LOG][Proc: 0]p: solve: 4673.292 [ms]
[OGL LOG][Proc: 0]p: copy_x_back: 18.005 [ms]
[OGL LOG][lduLduBase.H:330] 
Statistics:
	Time per iteration: 4515 [mu s]
	Time per residual norm calculation: 1295.000000 [mu s]
	Time per iteration and DOF: 0.089482 [ns]
	Retrieve results bandwidth 1.878000 [GByte/s]
[OGL LOG][Proc: 0]p: solve_multi_gpu: 4717.139 [ms]
BJcudaGKOCG:  Solving for p, Initial residual = 0.2907898621141484, Final residual = 0.002803402855087669, No Iterations 1035
time step continuity errors : sum local = 0.0226600003299723, global = -0.0002592982826484127, cumulative = 0.004376367334286863
[OGL LOG][Proc: 0]: global_index_init: 0.026 [ms]
[OGL LOG][Proc: 0]nuTilda_local_coeffs: call_update: 0 [ms]
[OGL LOG][Proc: 0]nuTilda_non_local_coeffs: call_update: 0 [ms]
[OGL LOG][Proc: 0]nuTilda: update_local_matrix_data: 227.575 [ms]
[OGL LOG][Proc: 0]nuTilda: update_non_local_matrix_data: 1.091 [ms]
[OGL LOG][Proc: 0]nuTilda_matrix: call_update: 5.099 [ms]
[OGL LOG][Proc: 0]nuTilda_rhs: call_update: 11.273 [ms]
[OGL LOG][Preconditioner.H:121] Generate preconditioner BJ MaxBlockSize 1
[OGL LOG][Proc: 0]nuTilda: init_precond: 2.274 [ms]
[OGL LOG][StoppingCriterion.H:239] Creating stopping criterion with minIter 3 frequency 1
[OGL LOG][Proc: 0]nuTilda: generate_solver: 0.043 [ms]
[OGL LOG][Proc: 0]nuTilda: solve: 220.561 [ms]
[OGL LOG][Proc: 0]nuTilda: copy_x_back: 17.711 [ms]
[OGL LOG][lduLduBase.H:330] 
Statistics:
	Time per iteration: 110280 [mu s]
	Time per residual norm calculation: 1530.000000 [mu s]
	Time per iteration and DOF: 2.185620 [ns]
	Retrieve results bandwidth 1.909000 [GByte/s]
[OGL LOG][Proc: 0]nuTilda: solve_multi_gpu: 266.085 [ms]
BJcudaGKOBiCGStab:  Solving for nuTilda, Initial residual = 0.2254625863957732, Final residual = 0.01282918238258563, No Iterations 2
ExecutionTime = 1081.96 s  ClockTime = 1084 s

Time = 4

velocityDampingConstraint velocityDamping damped 910 (0%) of cells, with max limit 300
[OGL LOG][Proc: 0]: global_index_init: 0.268 [ms]
[OGL LOG][Proc: 0]Ux_local_coeffs: call_update: 0 [ms]
[OGL LOG][Proc: 0]Ux_non_local_coeffs: call_update: 0 [ms]
[OGL LOG][Proc: 0]Ux: update_local_matrix_data: 232.343 [ms]
[OGL LOG][Proc: 0]Ux: update_non_local_matrix_data: 1.03 [ms]
[OGL LOG][Proc: 0]Ux_matrix: call_update: 4.933 [ms]
[OGL LOG][Proc: 0]Ux_rhs: call_update: 11.424 [ms]
[OGL LOG][Preconditioner.H:121] Generate preconditioner BJ MaxBlockSize 1
[OGL LOG][Proc: 0]Ux: init_precond: 2.385 [ms]
[OGL LOG][StoppingCriterion.H:239] Creating stopping criterion with minIter 3 frequency 1
[OGL LOG][Proc: 0]Ux: generate_solver: 0.016 [ms]
[OGL LOG][Proc: 0]Ux: solve: 240.805 [ms]
[OGL LOG][Proc: 0]Ux: copy_x_back: 17.513 [ms]
[OGL LOG][lduLduBase.H:330] 
Statistics:
	Time per iteration: 80268 [mu s]
	Time per residual norm calculation: 1671.000000 [mu s]
	Time per iteration and DOF: 1.590817 [ns]
	Retrieve results bandwidth 1.931000 [GByte/s]
[OGL LOG][Proc: 0]Ux: solve_multi_gpu: 283.484 [ms]
BJcudaGKOBiCGStab:  Solving for Ux, Initial residual = 0.0469297027086099, Final residual = 0.003833580925735952, No Iterations 3
[OGL LOG][Proc: 0]: global_index_init: 0.264 [ms]
[OGL LOG][Proc: 0]Uy_local_coeffs: call_update: 0 [ms]
[OGL LOG][Proc: 0]Uy_non_local_coeffs: call_update: 0 [ms]
[OGL LOG][Proc: 0]Uy: update_local_matrix_data: 234.201 [ms]
[OGL LOG][Proc: 0]Uy: update_non_local_matrix_data: 1.054 [ms]
[OGL LOG][Proc: 0]Uy_matrix: call_update: 5.112 [ms]
[OGL LOG][Proc: 0]Uy_rhs: call_update: 11.153 [ms]
[OGL LOG][Preconditioner.H:121] Generate preconditioner BJ MaxBlockSize 1
[OGL LOG][Proc: 0]Uy: init_precond: 2.336 [ms]
[OGL LOG][StoppingCriterion.H:239] Creating stopping criterion with minIter 4 frequency 1
[OGL LOG][Proc: 0]Uy: generate_solver: 0.018 [ms]
[OGL LOG][Proc: 0]Uy: solve: 242.722 [ms]
[OGL LOG][Proc: 0]Uy: copy_x_back: 17.743 [ms]
[OGL LOG][lduLduBase.H:330] 
Statistics:
	Time per iteration: 60680 [mu s]
	Time per residual norm calculation: 1663.000000 [mu s]
	Time per iteration and DOF: 1.202606 [ns]
	Retrieve results bandwidth 1.906000 [GByte/s]
[OGL LOG][Proc: 0]Uy: solve_multi_gpu: 283.063 [ms]
BJcudaGKOBiCGStab:  Solving for Uy, Initial residual = 0.1261936258832447, Final residual = 0.006664776843186224, No Iterations 4
[OGL LOG][Proc: 0]: global_index_init: 13.207 [ms]
[OGL LOG][Proc: 0]Uz_local_coeffs: call_update: 0 [ms]
[OGL LOG][Proc: 0]Uz_non_local_coeffs: call_update: 0 [ms]
[OGL LOG][Proc: 0]Uz: update_local_matrix_data: 231.301 [ms]
[OGL LOG][Proc: 0]Uz: update_non_local_matrix_data: 1.06 [ms]
[OGL LOG][Proc: 0]Uz_matrix: call_update: 5.164 [ms]
[OGL LOG][Proc: 0]Uz_rhs: call_update: 11.235 [ms]
[OGL LOG][Preconditioner.H:121] Generate preconditioner BJ MaxBlockSize 1
[OGL LOG][Proc: 0]Uz: init_precond: 2.36 [ms]
[OGL LOG][StoppingCriterion.H:239] Creating stopping criterion with minIter 3 frequency 1
[OGL LOG][Proc: 0]Uz: generate_solver: 0.021 [ms]
[OGL LOG][Proc: 0]Uz: solve: 232.619 [ms]
[OGL LOG][Proc: 0]Uz: copy_x_back: 17.873 [ms]
[OGL LOG][lduLduBase.H:330] 
Statistics:
	Time per iteration: 77539 [mu s]
	Time per residual norm calculation: 1770.000000 [mu s]
	Time per iteration and DOF: 1.536732 [ns]
	Retrieve results bandwidth 1.892000 [GByte/s]
[OGL LOG][Proc: 0]Uz: solve_multi_gpu: 273.398 [ms]
BJcudaGKOBiCGStab:  Solving for Uz, Initial residual = 0.1067847378546859, Final residual = 0.01013359628718763, No Iterations 3
[OGL LOG][Proc: 0]: global_index_init: 0.021 [ms]
[OGL LOG][Proc: 0]p_local_coeffs: call_update: 0 [ms]
[OGL LOG][Proc: 0]p_non_local_coeffs: call_update: 0 [ms]
[OGL LOG][Proc: 0]p: update_local_matrix_data: 176.654 [ms]
[OGL LOG][Proc: 0]p: update_non_local_matrix_data: 1.058 [ms]
[OGL LOG][Proc: 0]p_matrix: call_update: 5.572 [ms]
[OGL LOG][Proc: 0]p_rhs: call_update: 10.912 [ms]
[OGL LOG][Preconditioner.H:121] Generate preconditioner BJ MaxBlockSize 1
[OGL LOG][Proc: 0]p: init_precond: 2.003 [ms]
[OGL LOG][StoppingCriterion.H:239] Creating stopping criterion with minIter 621 frequency 11
[OGL LOG][Proc: 0]p: generate_solver: 0.015 [ms]
[OGL LOG][Proc: 0]p: solve: 2760.157 [ms]
[OGL LOG][Proc: 0]p: copy_x_back: 17.887 [ms]
[OGL LOG][lduLduBase.H:330] 
Statistics:
	Time per iteration: 4395 [mu s]
	Time per residual norm calculation: 1028.000000 [mu s]
	Time per iteration and DOF: 0.087104 [ns]
	Retrieve results bandwidth 1.890000 [GByte/s]
[OGL LOG][Proc: 0]p: solve_multi_gpu: 2804.621 [ms]
BJcudaGKOCG:  Solving for p, Initial residual = 0.4177142447380797, Final residual = 0.0004504428678996009, No Iterations 628
time step continuity errors : sum local = 0.007114562414934133, global = -0.00102521801423327, cumulative = 0.003351149320053593
[OGL LOG][Proc: 0]: global_index_init: 0.029 [ms]
[OGL LOG][Proc: 0]nuTilda_local_coeffs: call_update: 0 [ms]
[OGL LOG][Proc: 0]nuTilda_non_local_coeffs: call_update: 0 [ms]
[OGL LOG][Proc: 0]nuTilda: update_local_matrix_data: 226.376 [ms]
[OGL LOG][Proc: 0]nuTilda: update_non_local_matrix_data: 1.053 [ms]
[OGL LOG][Proc: 0]nuTilda_matrix: call_update: 3.654 [ms]
[OGL LOG][Proc: 0]nuTilda_rhs: call_update: 11.775 [ms]
[OGL LOG][Preconditioner.H:121] Generate preconditioner BJ MaxBlockSize 1
[OGL LOG][Proc: 0]nuTilda: init_precond: 2.594 [ms]
[OGL LOG][StoppingCriterion.H:239] Creating stopping criterion with minIter 2 frequency 1
[OGL LOG][Proc: 0]nuTilda: generate_solver: 0.015 [ms]
[OGL LOG][Proc: 0]nuTilda: solve: 231.078 [ms]
[OGL LOG][Proc: 0]nuTilda: copy_x_back: 17.681 [ms]
[OGL LOG][lduLduBase.H:330] 
Statistics:
	Time per iteration: 115539 [mu s]
	Time per residual norm calculation: 1782.000000 [mu s]
	Time per iteration and DOF: 2.289847 [ns]
	Retrieve results bandwidth 1.912000 [GByte/s]
[OGL LOG][Proc: 0]nuTilda: solve_multi_gpu: 276.572 [ms]
BJcudaGKOBiCGStab:  Solving for nuTilda, Initial residual = 0.1377767142333437, Final residual = 0.008577488432344337, No Iterations 2
ExecutionTime = 1103.67 s  ClockTime = 1105 s

Time = 5

velocityDampingConstraint velocityDamping damped 14771 (0.03%) of cells, with max limit 300
[OGL LOG][Proc: 0]: global_index_init: 0.268 [ms]
[OGL LOG][Proc: 0]Ux_local_coeffs: call_update: 0 [ms]
[OGL LOG][Proc: 0]Ux_non_local_coeffs: call_update: 0 [ms]
[OGL LOG][Proc: 0]Ux: update_local_matrix_data: 228.715 [ms]
[OGL LOG][Proc: 0]Ux: update_non_local_matrix_data: 1.128 [ms]
[OGL LOG][Proc: 0]Ux_matrix: call_update: 4.849 [ms]
[OGL LOG][Proc: 0]Ux_rhs: call_update: 11.399 [ms]
[OGL LOG][Preconditioner.H:121] Generate preconditioner BJ MaxBlockSize 1
[OGL LOG][Proc: 0]Ux: init_precond: 2.387 [ms]
[OGL LOG][StoppingCriterion.H:239] Creating stopping criterion with minIter 4 frequency 1
[OGL LOG][Proc: 0]Ux: generate_solver: 0.016 [ms]
[OGL LOG][Proc: 0]Ux: solve: 229.164 [ms]
[OGL LOG][Proc: 0]Ux: copy_x_back: 17.232 [ms]
[OGL LOG][lduLduBase.H:330] 
Statistics:
	Time per iteration: 114582 [mu s]
	Time per residual norm calculation: 1775.000000 [mu s]
	Time per iteration and DOF: 2.270880 [ns]
	Retrieve results bandwidth 1.962000 [GByte/s]
[OGL LOG][Proc: 0]Ux: solve_multi_gpu: 273.687 [ms]
BJcudaGKOBiCGStab:  Solving for Ux, Initial residual = 0.3320755365265154, Final residual = 0.02330310627320539, No Iterations 2
[OGL LOG][Proc: 0]: global_index_init: 0.23 [ms]
[OGL LOG][Proc: 0]Uy_local_coeffs: call_update: 0 [ms]
[OGL LOG][Proc: 0]Uy_non_local_coeffs: call_update: 0 [ms]
[OGL LOG][Proc: 0]Uy: update_local_matrix_data: 231.204 [ms]
[OGL LOG][Proc: 0]Uy: update_non_local_matrix_data: 1.146 [ms]
[OGL LOG][Proc: 0]Uy_matrix: call_update: 5.027 [ms]
[OGL LOG][Proc: 0]Uy_rhs: call_update: 10.824 [ms]
[OGL LOG][Preconditioner.H:121] Generate preconditioner BJ MaxBlockSize 1
[OGL LOG][Proc: 0]Uy: init_precond: 2.296 [ms]
[OGL LOG][StoppingCriterion.H:239] Creating stopping criterion with minIter 4 frequency 1
[OGL LOG][Proc: 0]Uy: generate_solver: 0.02 [ms]
[OGL LOG][Proc: 0]Uy: solve: 233.639 [ms]
[OGL LOG][Proc: 0]Uy: copy_x_back: 17.73 [ms]
[OGL LOG][lduLduBase.H:330] 
Statistics:
	Time per iteration: 77879 [mu s]
	Time per residual norm calculation: 2006.000000 [mu s]
	Time per iteration and DOF: 1.543470 [ns]
	Retrieve results bandwidth 1.907000 [GByte/s]
[OGL LOG][Proc: 0]Uy: solve_multi_gpu: 275.71 [ms]
BJcudaGKOBiCGStab:  Solving for Uy, Initial residual = 0.4401710465330599, Final residual = 0.03460127571965237, No Iterations 3
[OGL LOG][Proc: 0]: global_index_init: 0.226 [ms]
[OGL LOG][Proc: 0]Uz_local_coeffs: call_update: 0 [ms]
[OGL LOG][Proc: 0]Uz_non_local_coeffs: call_update: 0 [ms]
[OGL LOG][Proc: 0]Uz: update_local_matrix_data: 228.783 [ms]
[OGL LOG][Proc: 0]Uz: update_non_local_matrix_data: 1.132 [ms]
[OGL LOG][Proc: 0]Uz_matrix: call_update: 5.356 [ms]
[OGL LOG][Proc: 0]Uz_rhs: call_update: 11.261 [ms]
[OGL LOG][Preconditioner.H:121] Generate preconditioner BJ MaxBlockSize 1
[OGL LOG][Proc: 0]Uz: init_precond: 2.228 [ms]
[OGL LOG][StoppingCriterion.H:239] Creating stopping criterion with minIter 3 frequency 1
[OGL LOG][Proc: 0]Uz: generate_solver: 0.024 [ms]
[OGL LOG][Proc: 0]Uz: solve: 234.576 [ms]
[OGL LOG][Proc: 0]Uz: copy_x_back: 17.693 [ms]
[OGL LOG][lduLduBase.H:330] 
Statistics:
	Time per iteration: 78192 [mu s]
	Time per residual norm calculation: 1976.000000 [mu s]
	Time per iteration and DOF: 1.549673 [ns]
	Retrieve results bandwidth 1.911000 [GByte/s]
[OGL LOG][Proc: 0]Uz: solve_multi_gpu: 280.238 [ms]
BJcudaGKOBiCGStab:  Solving for Uz, Initial residual = 0.5738813972994824, Final residual = 0.05727623718028737, No Iterations 3
[OGL LOG][Proc: 0]: global_index_init: 0.022 [ms]
[OGL LOG][Proc: 0]p_local_coeffs: call_update: 0 [ms]
[OGL LOG][Proc: 0]p_non_local_coeffs: call_update: 0 [ms]
[OGL LOG][Proc: 0]p: update_local_matrix_data: 177.45 [ms]
[OGL LOG][Proc: 0]p: update_non_local_matrix_data: 1.148 [ms]
[OGL LOG][Proc: 0]p_matrix: call_update: 5.454 [ms]
[OGL LOG][Proc: 0]p_rhs: call_update: 11.074 [ms]
[OGL LOG][Preconditioner.H:121] Generate preconditioner BJ MaxBlockSize 1
[OGL LOG][Proc: 0]p: init_precond: 2.419 [ms]
[OGL LOG][StoppingCriterion.H:239] Creating stopping criterion with minIter 376 frequency 7
[OGL LOG][Proc: 0]p: generate_solver: 0.014 [ms]
[OGL LOG][Proc: 0]p: solve: 3965.281 [ms]
[OGL LOG][Proc: 0]p: copy_x_back: 17.923 [ms]
[OGL LOG][lduLduBase.H:330] 
Statistics:
	Time per iteration: 4386 [mu s]
	Time per residual norm calculation: 1321.000000 [mu s]
	Time per iteration and DOF: 0.086925 [ns]
	Retrieve results bandwidth 1.887000 [GByte/s]
[OGL LOG][Proc: 0]p: solve_multi_gpu: 4008.622 [ms]
BJcudaGKOCG:  Solving for p, Initial residual = 0.2245503773756517, Final residual = 0.002084230101664847, No Iterations 904
time step continuity errors : sum local = 0.03412857957151928, global = -0.001038338606231977, cumulative = 0.002312810713821616
[OGL LOG][Proc: 0]: global_index_init: 0.022 [ms]
[OGL LOG][Proc: 0]nuTilda_local_coeffs: call_update: 0 [ms]
[OGL LOG][Proc: 0]nuTilda_non_local_coeffs: call_update: 0 [ms]
[OGL LOG][Proc: 0]nuTilda: update_local_matrix_data: 225.455 [ms]
[OGL LOG][Proc: 0]nuTilda: update_non_local_matrix_data: 1.071 [ms]
[OGL LOG][Proc: 0]nuTilda_matrix: call_update: 5.299 [ms]
[OGL LOG][Proc: 0]nuTilda_rhs: call_update: 11.432 [ms]
[OGL LOG][Preconditioner.H:121] Generate preconditioner BJ MaxBlockSize 1
[OGL LOG][Proc: 0]nuTilda: init_precond: 2.366 [ms]
[OGL LOG][StoppingCriterion.H:239] Creating stopping criterion with minIter 3 frequency 1
[OGL LOG][Proc: 0]nuTilda: generate_solver: 0.016 [ms]
[OGL LOG][Proc: 0]nuTilda: solve: 230.279 [ms]
[OGL LOG][Proc: 0]nuTilda: copy_x_back: 17.851 [ms]
[OGL LOG][lduLduBase.H:330] 
Statistics:
	Time per iteration: 115139 [mu s]
	Time per residual norm calculation: 1848.000000 [mu s]
	Time per iteration and DOF: 2.281919 [ns]
	Retrieve results bandwidth 1.894000 [GByte/s]
[OGL LOG][Proc: 0]nuTilda: solve_multi_gpu: 277.955 [ms]
BJcudaGKOBiCGStab:  Solving for nuTilda, Initial residual = 0.08988564034034488, Final residual = 0.004765545076357783, No Iterations 2
ExecutionTime = 1126.87 s  ClockTime = 1129 s

Time = 6

velocityDampingConstraint velocityDamping damped 1778 (0%) of cells, with max limit 300
[OGL LOG][Proc: 0]: global_index_init: 0.237 [ms]
[OGL LOG][Proc: 0]Ux_local_coeffs: call_update: 0 [ms]
[OGL LOG][Proc: 0]Ux_non_local_coeffs: call_update: 0 [ms]
[OGL LOG][Proc: 0]Ux: update_local_matrix_data: 230.927 [ms]
[OGL LOG][Proc: 0]Ux: update_non_local_matrix_data: 1.02 [ms]
[OGL LOG][Proc: 0]Ux_matrix: call_update: 5.027 [ms]
[OGL LOG][Proc: 0]Ux_rhs: call_update: 11.149 [ms]
[OGL LOG][Preconditioner.H:121] Generate preconditioner BJ MaxBlockSize 1
[OGL LOG][Proc: 0]Ux: init_precond: 2.276 [ms]
[OGL LOG][StoppingCriterion.H:239] Creating stopping criterion with minIter 3 frequency 1
[OGL LOG][Proc: 0]Ux: generate_solver: 0.019 [ms]
[OGL LOG][Proc: 0]Ux: solve: 240.025 [ms]
[OGL LOG][Proc: 0]Ux: copy_x_back: 17.493 [ms]
[OGL LOG][lduLduBase.H:330] 
Statistics:
	Time per iteration: 80008 [mu s]
	Time per residual norm calculation: 1749.000000 [mu s]
	Time per iteration and DOF: 1.585664 [ns]
	Retrieve results bandwidth 1.933000 [GByte/s]
[OGL LOG][Proc: 0]Ux: solve_multi_gpu: 283.493 [ms]
BJcudaGKOBiCGStab:  Solving for Ux, Initial residual = 0.2033900330151797, Final residual = 0.01810275088280126, No Iterations 3
[OGL LOG][Proc: 0]: global_index_init: 0.24 [ms]
[OGL LOG][Proc: 0]Uy_local_coeffs: call_update: 0 [ms]
[OGL LOG][Proc: 0]Uy_non_local_coeffs: call_update: 0 [ms]
[OGL LOG][Proc: 0]Uy: update_local_matrix_data: 243.682 [ms]
[OGL LOG][Proc: 0]Uy: update_non_local_matrix_data: 1.074 [ms]
[OGL LOG][Proc: 0]Uy_matrix: call_update: 4.486 [ms]
[OGL LOG][Proc: 0]Uy_rhs: call_update: 18.677 [ms]
[OGL LOG][Preconditioner.H:121] Generate preconditioner BJ MaxBlockSize 1
[OGL LOG][Proc: 0]Uy: init_precond: 2.213 [ms]
[OGL LOG][StoppingCriterion.H:239] Creating stopping criterion with minIter 3 frequency 1
[OGL LOG][Proc: 0]Uy: generate_solver: 0.016 [ms]
[OGL LOG][Proc: 0]Uy: solve: 237.936 [ms]
[OGL LOG][Proc: 0]Uy: copy_x_back: 17.4 [ms]
[OGL LOG][lduLduBase.H:330] 
Statistics:
	Time per iteration: 79312 [mu s]
	Time per residual norm calculation: 1717.000000 [mu s]
	Time per iteration and DOF: 1.571870 [ns]
	Retrieve results bandwidth 1.943000 [GByte/s]
[OGL LOG][Proc: 0]Uy: solve_multi_gpu: 284.779 [ms]
BJcudaGKOBiCGStab:  Solving for Uy, Initial residual = 0.4059341814216989, Final residual = 0.03019636219343281, No Iterations 3
[OGL LOG][Proc: 0]: global_index_init: 0.246 [ms]
[OGL LOG][Proc: 0]Uz_local_coeffs: call_update: 0 [ms]
[OGL LOG][Proc: 0]Uz_non_local_coeffs: call_update: 0 [ms]
[OGL LOG][Proc: 0]Uz: update_local_matrix_data: 228.03 [ms]
[OGL LOG][Proc: 0]Uz: update_non_local_matrix_data: 1.028 [ms]
[OGL LOG][Proc: 0]Uz_matrix: call_update: 4.65 [ms]
[OGL LOG][Proc: 0]Uz_rhs: call_update: 11.013 [ms]
[OGL LOG][Preconditioner.H:121] Generate preconditioner BJ MaxBlockSize 1
[OGL LOG][Proc: 0]Uz: init_precond: 2.307 [ms]
[OGL LOG][StoppingCriterion.H:239] Creating stopping criterion with minIter 3 frequency 1
[OGL LOG][Proc: 0]Uz: generate_solver: 0.016 [ms]
[OGL LOG][Proc: 0]Uz: solve: 262.141 [ms]
[OGL LOG][Proc: 0]Uz: copy_x_back: 17.691 [ms]
[OGL LOG][lduLduBase.H:330] 
Statistics:
	Time per iteration: 87380 [mu s]
	Time per residual norm calculation: 1736.000000 [mu s]
	Time per iteration and DOF: 1.731769 [ns]
	Retrieve results bandwidth 1.911000 [GByte/s]
[OGL LOG][Proc: 0]Uz: solve_multi_gpu: 308.063 [ms]
BJcudaGKOBiCGStab:  Solving for Uz, Initial residual = 0.3722431056782892, Final residual = 0.02974300125576015, No Iterations 3
[OGL LOG][Proc: 0]: global_index_init: 0.028 [ms]
[OGL LOG][Proc: 0]p_local_coeffs: call_update: 0 [ms]
[OGL LOG][Proc: 0]p_non_local_coeffs: call_update: 0 [ms]
[OGL LOG][Proc: 0]p: update_local_matrix_data: 177.774 [ms]
[OGL LOG][Proc: 0]p: update_non_local_matrix_data: 1.032 [ms]
[OGL LOG][Proc: 0]p_matrix: call_update: 3.466 [ms]
[OGL LOG][Proc: 0]p_rhs: call_update: 12.482 [ms]
[OGL LOG][Preconditioner.H:121] Generate preconditioner BJ MaxBlockSize 1
[OGL LOG][Proc: 0]p: init_precond: 2.346 [ms]
[OGL LOG][StoppingCriterion.H:239] Creating stopping criterion with minIter 542 frequency 10
[OGL LOG][Proc: 0]p: generate_solver: 0.017 [ms]
[OGL LOG][Proc: 0]p: solve: 2702.819 [ms]
[OGL LOG][Proc: 0]p: copy_x_back: 17.953 [ms]
[OGL LOG][lduLduBase.H:330] 
Statistics:
	Time per iteration: 4423 [mu s]
	Time per residual norm calculation: 1021.000000 [mu s]
	Time per iteration and DOF: 0.087659 [ns]
	Retrieve results bandwidth 1.883000 [GByte/s]
[OGL LOG][Proc: 0]p: solve_multi_gpu: 2747.122 [ms]
BJcudaGKOCG:  Solving for p, Initial residual = 0.4776016543838753, Final residual = 0.004674284391835102, No Iterations 611
time step continuity errors : sum local = 0.04009711757548428, global = -0.009111005521435841, cumulative = -0.006798194807614224
[OGL LOG][Proc: 0]: global_index_init: 0.04 [ms]
[OGL LOG][Proc: 0]nuTilda_local_coeffs: call_update: 0 [ms]
[OGL LOG][Proc: 0]nuTilda_non_local_coeffs: call_update: 0 [ms]
[OGL LOG][Proc: 0]nuTilda: update_local_matrix_data: 226.7 [ms]
[OGL LOG][Proc: 0]nuTilda: update_non_local_matrix_data: 1.076 [ms]
[OGL LOG][Proc: 0]nuTilda_matrix: call_update: 5.228 [ms]
[OGL LOG][Proc: 0]nuTilda_rhs: call_update: 11.266 [ms]
[OGL LOG][Preconditioner.H:121] Generate preconditioner BJ MaxBlockSize 1
[OGL LOG][Proc: 0]nuTilda: init_precond: 2.22 [ms]
[OGL LOG][StoppingCriterion.H:239] Creating stopping criterion with minIter 3 frequency 1
[OGL LOG][Proc: 0]nuTilda: generate_solver: 0.026 [ms]
[OGL LOG][Proc: 0]nuTilda: solve: 229.685 [ms]
[OGL LOG][Proc: 0]nuTilda: copy_x_back: 17.871 [ms]
[OGL LOG][lduLduBase.H:330] 
Statistics:
	Time per iteration: 114842 [mu s]
	Time per residual norm calculation: 1762.000000 [mu s]
	Time per iteration and DOF: 2.276033 [ns]
	Retrieve results bandwidth 1.892000 [GByte/s]
[OGL LOG][Proc: 0]nuTilda: solve_multi_gpu: 275.817 [ms]
BJcudaGKOBiCGStab:  Solving for nuTilda, Initial residual = 0.06174506746581342, Final residual = 0.00358559490314736, No Iterations 2
ExecutionTime = 1148.95 s  ClockTime = 1151 s

Time = 7

velocityDampingConstraint velocityDamping damped 5260 (0.01%) of cells, with max limit 300
[OGL LOG][Proc: 0]: global_index_init: 0.281 [ms]
[OGL LOG][Proc: 0]Ux_local_coeffs: call_update: 0 [ms]
[OGL LOG][Proc: 0]Ux_non_local_coeffs: call_update: 0 [ms]
[OGL LOG][Proc: 0]Ux: update_local_matrix_data: 230.658 [ms]
[OGL LOG][Proc: 0]Ux: update_non_local_matrix_data: 1.121 [ms]
[OGL LOG][Proc: 0]Ux_matrix: call_update: 5.314 [ms]
[OGL LOG][Proc: 0]Ux_rhs: call_update: 11.389 [ms]
[OGL LOG][Preconditioner.H:121] Generate preconditioner BJ MaxBlockSize 1
[OGL LOG][Proc: 0]Ux: init_precond: 2.307 [ms]
[OGL LOG][StoppingCriterion.H:239] Creating stopping criterion with minIter 4 frequency 1
[OGL LOG][Proc: 0]Ux: generate_solver: 0.018 [ms]
[OGL LOG][Proc: 0]Ux: solve: 244.885 [ms]
[OGL LOG][Proc: 0]Ux: copy_x_back: 17.76 [ms]
[OGL LOG][lduLduBase.H:330] 
Statistics:
	Time per iteration: 61221 [mu s]
	Time per residual norm calculation: 1530.000000 [mu s]
	Time per iteration and DOF: 1.213328 [ns]
	Retrieve results bandwidth 1.904000 [GByte/s]
[OGL LOG][Proc: 0]Ux: solve_multi_gpu: 288.784 [ms]
BJcudaGKOBiCGStab:  Solving for Ux, Initial residual = 0.2517658369164297, Final residual = 0.01129740292976886, No Iterations 4
[OGL LOG][Proc: 0]: global_index_init: 0.213 [ms]
[OGL LOG][Proc: 0]Uy_local_coeffs: call_update: 0 [ms]
[OGL LOG][Proc: 0]Uy_non_local_coeffs: call_update: 0 [ms]
[OGL LOG][Proc: 0]Uy: update_local_matrix_data: 232.8 [ms]
[OGL LOG][Proc: 0]Uy: update_non_local_matrix_data: 1.109 [ms]
[OGL LOG][Proc: 0]Uy_matrix: call_update: 5.237 [ms]
[OGL LOG][Proc: 0]Uy_rhs: call_update: 11.294 [ms]
[OGL LOG][Preconditioner.H:121] Generate preconditioner BJ MaxBlockSize 1
[OGL LOG][Proc: 0]Uy: init_precond: 2.407 [ms]
[OGL LOG][StoppingCriterion.H:239] Creating stopping criterion with minIter 3 frequency 1
[OGL LOG][Proc: 0]Uy: generate_solver: 0.016 [ms]
[OGL LOG][Proc: 0]Uy: solve: 238.854 [ms]
[OGL LOG][Proc: 0]Uy: copy_x_back: 17.763 [ms]
[OGL LOG][lduLduBase.H:330] 
Statistics:
	Time per iteration: 79618 [mu s]
	Time per residual norm calculation: 1237.000000 [mu s]
	Time per iteration and DOF: 1.577935 [ns]
	Retrieve results bandwidth 1.904000 [GByte/s]
[OGL LOG][Proc: 0]Uy: solve_multi_gpu: 280.76 [ms]
BJcudaGKOBiCGStab:  Solving for Uy, Initial residual = 0.2468367888619523, Final residual = 0.0169786730976606, No Iterations 3
[OGL LOG][Proc: 0]: global_index_init: 0.241 [ms]
[OGL LOG][Proc: 0]Uz_local_coeffs: call_update: 0 [ms]
[OGL LOG][Proc: 0]Uz_non_local_coeffs: call_update: 0 [ms]
[OGL LOG][Proc: 0]Uz: update_local_matrix_data: 229.187 [ms]
[OGL LOG][Proc: 0]Uz: update_non_local_matrix_data: 1.102 [ms]
[OGL LOG][Proc: 0]Uz_matrix: call_update: 5.109 [ms]
[OGL LOG][Proc: 0]Uz_rhs: call_update: 10.827 [ms]
[OGL LOG][Preconditioner.H:121] Generate preconditioner BJ MaxBlockSize 1
[OGL LOG][Proc: 0]Uz: init_precond: 1.533 [ms]
[OGL LOG][StoppingCriterion.H:239] Creating stopping criterion with minIter 4 frequency 1
[OGL LOG][Proc: 0]Uz: generate_solver: 0.015 [ms]
[OGL LOG][Proc: 0]Uz: solve: 242.928 [ms]
[OGL LOG][Proc: 0]Uz: copy_x_back: 17.509 [ms]
[OGL LOG][lduLduBase.H:330] 
Statistics:
	Time per iteration: 60732 [mu s]
	Time per residual norm calculation: 1386.000000 [mu s]
	Time per iteration and DOF: 1.203637 [ns]
	Retrieve results bandwidth 1.931000 [GByte/s]
[OGL LOG][Proc: 0]Uz: solve_multi_gpu: 285.807 [ms]
BJcudaGKOBiCGStab:  Solving for Uz, Initial residual = 0.200284227611241, Final residual = 0.01230836449040506, No Iterations 4
[OGL LOG][Proc: 0]: global_index_init: 0.021 [ms]
[OGL LOG][Proc: 0]p_local_coeffs: call_update: 0 [ms]
[OGL LOG][Proc: 0]p_non_local_coeffs: call_update: 0 [ms]
[OGL LOG][Proc: 0]p: update_local_matrix_data: 174.011 [ms]
[OGL LOG][Proc: 0]p: update_non_local_matrix_data: 1.076 [ms]
[OGL LOG][Proc: 0]p_matrix: call_update: 4.484 [ms]
[OGL LOG][Proc: 0]p_rhs: call_update: 11.719 [ms]
[OGL LOG][Preconditioner.H:121] Generate preconditioner BJ MaxBlockSize 1
[OGL LOG][Proc: 0]p: init_precond: 2.306 [ms]
[OGL LOG][StoppingCriterion.H:239] Creating stopping criterion with minIter 366 frequency 7
[OGL LOG][Proc: 0]p: generate_solver: 0.016 [ms]
[OGL LOG][Proc: 0]p: solve: 3874.46 [ms]
[OGL LOG][Proc: 0]p: copy_x_back: 17.909 [ms]
[OGL LOG][lduLduBase.H:330] 
Statistics:
	Time per iteration: 4606 [mu s]
	Time per residual norm calculation: 1022.000000 [mu s]
	Time per iteration and DOF: 0.091285 [ns]
	Retrieve results bandwidth 1.888000 [GByte/s]
[OGL LOG][Proc: 0]p: solve_multi_gpu: 3921.222 [ms]
BJcudaGKOCG:  Solving for p, Initial residual = 0.2131146422331654, Final residual = 0.00210365492563434, No Iterations 841
time step continuity errors : sum local = 0.03159010876642809, global = 0.0007217503589731629, cumulative = -0.006076444448641061
[OGL LOG][Proc: 0]: global_index_init: 0.027 [ms]
[OGL LOG][Proc: 0]nuTilda_local_coeffs: call_update: 0 [ms]
[OGL LOG][Proc: 0]nuTilda_non_local_coeffs: call_update: 0 [ms]
[OGL LOG][Proc: 0]nuTilda: update_local_matrix_data: 224.992 [ms]
[OGL LOG][Proc: 0]nuTilda: update_non_local_matrix_data: 1.103 [ms]
[OGL LOG][Proc: 0]nuTilda_matrix: call_update: 5.321 [ms]
[OGL LOG][Proc: 0]nuTilda_rhs: call_update: 11.295 [ms]
[OGL LOG][Preconditioner.H:121] Generate preconditioner BJ MaxBlockSize 1
[OGL LOG][Proc: 0]nuTilda: init_precond: 2.312 [ms]
[OGL LOG][StoppingCriterion.H:239] Creating stopping criterion with minIter 3 frequency 1
[OGL LOG][Proc: 0]nuTilda: generate_solver: 0.017 [ms]
[OGL LOG][Proc: 0]nuTilda: solve: 227.708 [ms]
[OGL LOG][Proc: 0]nuTilda: copy_x_back: 17.813 [ms]
[OGL LOG][lduLduBase.H:330] 
Statistics:
	Time per iteration: 113854 [mu s]
	Time per residual norm calculation: 1705.000000 [mu s]
	Time per iteration and DOF: 2.256452 [ns]
	Retrieve results bandwidth 1.898000 [GByte/s]
[OGL LOG][Proc: 0]nuTilda: solve_multi_gpu: 278.771 [ms]
BJcudaGKOBiCGStab:  Solving for nuTilda, Initial residual = 0.05629113420903085, Final residual = 0.003349072472596301, No Iterations 2
ExecutionTime = 1172.08 s  ClockTime = 1174 s

Time = 8

velocityDampingConstraint velocityDamping damped 9414 (0.02%) of cells, with max limit 300
[OGL LOG][Proc: 0]: global_index_init: 0.254 [ms]
[OGL LOG][Proc: 0]Ux_local_coeffs: call_update: 0 [ms]
[OGL LOG][Proc: 0]Ux_non_local_coeffs: call_update: 0 [ms]
[OGL LOG][Proc: 0]Ux: update_local_matrix_data: 229.924 [ms]
[OGL LOG][Proc: 0]Ux: update_non_local_matrix_data: 1.003 [ms]
[OGL LOG][Proc: 0]Ux_matrix: call_update: 5.266 [ms]
[OGL LOG][Proc: 0]Ux_rhs: call_update: 11.066 [ms]
[OGL LOG][Preconditioner.H:121] Generate preconditioner BJ MaxBlockSize 1
[OGL LOG][Proc: 0]Ux: init_precond: 2.508 [ms]
[OGL LOG][StoppingCriterion.H:239] Creating stopping criterion with minIter 4 frequency 1
[OGL LOG][Proc: 0]Ux: generate_solver: 0.016 [ms]
[OGL LOG][Proc: 0]Ux: solve: 248.01 [ms]
[OGL LOG][Proc: 0]Ux: copy_x_back: 17.695 [ms]
[OGL LOG][lduLduBase.H:330] 
Statistics:
	Time per iteration: 62002 [mu s]
	Time per residual norm calculation: 1905.000000 [mu s]
	Time per iteration and DOF: 1.228807 [ns]
	Retrieve results bandwidth 1.911000 [GByte/s]
[OGL LOG][Proc: 0]Ux: solve_multi_gpu: 292.902 [ms]
BJcudaGKOBiCGStab:  Solving for Ux, Initial residual = 0.1987614477496333, Final residual = 0.01104861846515736, No Iterations 4
[OGL LOG][Proc: 0]: global_index_init: 0.227 [ms]
[OGL LOG][Proc: 0]Uy_local_coeffs: call_update: 0 [ms]
[OGL LOG][Proc: 0]Uy_non_local_coeffs: call_update: 0 [ms]
[OGL LOG][Proc: 0]Uy: update_local_matrix_data: 233.068 [ms]
[OGL LOG][Proc: 0]Uy: update_non_local_matrix_data: 1.03 [ms]
[OGL LOG][Proc: 0]Uy_matrix: call_update: 5.409 [ms]
[OGL LOG][Proc: 0]Uy_rhs: call_update: 11.483 [ms]
[OGL LOG][Preconditioner.H:121] Generate preconditioner BJ MaxBlockSize 1
[OGL LOG][Proc: 0]Uy: init_precond: 2.365 [ms]
[OGL LOG][StoppingCriterion.H:239] Creating stopping criterion with minIter 4 frequency 1
[OGL LOG][Proc: 0]Uy: generate_solver: 0.016 [ms]
[OGL LOG][Proc: 0]Uy: solve: 232.574 [ms]
[OGL LOG][Proc: 0]Uy: copy_x_back: 17.743 [ms]
[OGL LOG][lduLduBase.H:330] 
Statistics:
	Time per iteration: 77524 [mu s]
	Time per residual norm calculation: 1938.000000 [mu s]
	Time per iteration and DOF: 1.536434 [ns]
	Retrieve results bandwidth 1.906000 [GByte/s]
[OGL LOG][Proc: 0]Uy: solve_multi_gpu: 273.737 [ms]
BJcudaGKOBiCGStab:  Solving for Uy, Initial residual = 0.3129418503739552, Final residual = 0.02491771366244159, No Iterations 3
[OGL LOG][Proc: 0]: global_index_init: 0.225 [ms]
[OGL LOG][Proc: 0]Uz_local_coeffs: call_update: 0 [ms]
[OGL LOG][Proc: 0]Uz_non_local_coeffs: call_update: 0 [ms]
[OGL LOG][Proc: 0]Uz: update_local_matrix_data: 233.977 [ms]
[OGL LOG][Proc: 0]Uz: update_non_local_matrix_data: 1.029 [ms]
[OGL LOG][Proc: 0]Uz_matrix: call_update: 5.237 [ms]
[OGL LOG][Proc: 0]Uz_rhs: call_update: 11.21 [ms]
[OGL LOG][Preconditioner.H:121] Generate preconditioner BJ MaxBlockSize 1
[OGL LOG][Proc: 0]Uz: init_precond: 2.212 [ms]
[OGL LOG][StoppingCriterion.H:239] Creating stopping criterion with minIter 4 frequency 1
[OGL LOG][Proc: 0]Uz: generate_solver: 0.017 [ms]
[OGL LOG][Proc: 0]Uz: solve: 237.733 [ms]
[OGL LOG][Proc: 0]Uz: copy_x_back: 17.758 [ms]
[OGL LOG][lduLduBase.H:330] 
Statistics:
	Time per iteration: 79244 [mu s]
	Time per residual norm calculation: 1689.000000 [mu s]
	Time per iteration and DOF: 1.570523 [ns]
	Retrieve results bandwidth 1.904000 [GByte/s]
[OGL LOG][Proc: 0]Uz: solve_multi_gpu: 278.351 [ms]
BJcudaGKOBiCGStab:  Solving for Uz, Initial residual = 0.2625895593220241, Final residual = 0.01733971392873021, No Iterations 3
[OGL LOG][Proc: 0]: global_index_init: 0.021 [ms]
[OGL LOG][Proc: 0]p_local_coeffs: call_update: 0 [ms]
[OGL LOG][Proc: 0]p_non_local_coeffs: call_update: 0 [ms]
[OGL LOG][Proc: 0]p: update_local_matrix_data: 175.88 [ms]
[OGL LOG][Proc: 0]p: update_non_local_matrix_data: 1.115 [ms]
[OGL LOG][Proc: 0]p_matrix: call_update: 4.94 [ms]
[OGL LOG][Proc: 0]p_rhs: call_update: 11.197 [ms]
[OGL LOG][Preconditioner.H:121] Generate preconditioner BJ MaxBlockSize 1
[OGL LOG][Proc: 0]p: init_precond: 2.407 [ms]
[OGL LOG][StoppingCriterion.H:239] Creating stopping criterion with minIter 504 frequency 9
[OGL LOG][Proc: 0]p: generate_solver: 0.015 [ms]
[OGL LOG][Proc: 0]p: solve: 3838.79 [ms]
[OGL LOG][Proc: 0]p: copy_x_back: 17.386 [ms]
[OGL LOG][lduLduBase.H:330] 
Statistics:
	Time per iteration: 4347 [mu s]
	Time per residual norm calculation: 1019.000000 [mu s]
	Time per iteration and DOF: 0.086152 [ns]
	Retrieve results bandwidth 1.945000 [GByte/s]
[OGL LOG][Proc: 0]p: solve_multi_gpu: 3884.018 [ms]
BJcudaGKOCG:  Solving for p, Initial residual = 0.3644137906041965, Final residual = 0.003489678807926516, No Iterations 883
time step continuity errors : sum local = 0.02648922829999537, global = 0.0004689678135593858, cumulative = -0.005607476635081676
[OGL LOG][Proc: 0]: global_index_init: 0.022 [ms]
[OGL LOG][Proc: 0]nuTilda_local_coeffs: call_update: 0 [ms]
[OGL LOG][Proc: 0]nuTilda_non_local_coeffs: call_update: 0 [ms]
[OGL LOG][Proc: 0]nuTilda: update_local_matrix_data: 231.094 [ms]
[OGL LOG][Proc: 0]nuTilda: update_non_local_matrix_data: 0.983 [ms]
[OGL LOG][Proc: 0]nuTilda_matrix: call_update: 3.438 [ms]
[OGL LOG][Proc: 0]nuTilda_rhs: call_update: 18.527 [ms]
[OGL LOG][Preconditioner.H:121] Generate preconditioner BJ MaxBlockSize 1
[OGL LOG][Proc: 0]nuTilda: init_precond: 2.512 [ms]
[OGL LOG][StoppingCriterion.H:239] Creating stopping criterion with minIter 3 frequency 1
[OGL LOG][Proc: 0]nuTilda: generate_solver: 0.018 [ms]
[OGL LOG][Proc: 0]nuTilda: solve: 269.642 [ms]
[OGL LOG][Proc: 0]nuTilda: copy_x_back: 17.755 [ms]
[OGL LOG][lduLduBase.H:330] 
Statistics:
	Time per iteration: 134821 [mu s]
	Time per residual norm calculation: 1797.000000 [mu s]
	Time per iteration and DOF: 2.671993 [ns]
	Retrieve results bandwidth 1.904000 [GByte/s]
[OGL LOG][Proc: 0]nuTilda: solve_multi_gpu: 320.297 [ms]
BJcudaGKOBiCGStab:  Solving for nuTilda, Initial residual = 0.04264523814790872, Final residual = 0.002217188158765167, No Iterations 2
ExecutionTime = 1195.26 s  ClockTime = 1197 s

Time = 9

velocityDampingConstraint velocityDamping damped 305 (0%) of cells, with max limit 300
[OGL LOG][Proc: 0]: global_index_init: 0.29 [ms]
[OGL LOG][Proc: 0]Ux_local_coeffs: call_update: 0 [ms]
[OGL LOG][Proc: 0]Ux_non_local_coeffs: call_update: 0 [ms]
[OGL LOG][Proc: 0]Ux: update_local_matrix_data: 227.893 [ms]
[OGL LOG][Proc: 0]Ux: update_non_local_matrix_data: 1.009 [ms]
[OGL LOG][Proc: 0]Ux_matrix: call_update: 5.209 [ms]
[OGL LOG][Proc: 0]Ux_rhs: call_update: 11.35 [ms]
[OGL LOG][Preconditioner.H:121] Generate preconditioner BJ MaxBlockSize 1
[OGL LOG][Proc: 0]Ux: init_precond: 2.316 [ms]
[OGL LOG][StoppingCriterion.H:239] Creating stopping criterion with minIter 4 frequency 1
[OGL LOG][Proc: 0]Ux: generate_solver: 0.027 [ms]
[OGL LOG][Proc: 0]Ux: solve: 239.551 [ms]
[OGL LOG][Proc: 0]Ux: copy_x_back: 17.873 [ms]
[OGL LOG][lduLduBase.H:330] 
Statistics:
	Time per iteration: 79850 [mu s]
	Time per residual norm calculation: 1168.000000 [mu s]
	Time per iteration and DOF: 1.582533 [ns]
	Retrieve results bandwidth 1.892000 [GByte/s]
[OGL LOG][Proc: 0]Ux: solve_multi_gpu: 285.866 [ms]
BJcudaGKOBiCGStab:  Solving for Ux, Initial residual = 0.09538045551559289, Final residual = 0.007355831041189704, No Iterations 3
[OGL LOG][Proc: 0]: global_index_init: 2.678 [ms]
[OGL LOG][Proc: 0]Uy_local_coeffs: call_update: 0 [ms]
[OGL LOG][Proc: 0]Uy_non_local_coeffs: call_update: 0 [ms]
[OGL LOG][Proc: 0]Uy: update_local_matrix_data: 226.616 [ms]
[OGL LOG][Proc: 0]Uy: update_non_local_matrix_data: 1.027 [ms]
[OGL LOG][Proc: 0]Uy_matrix: call_update: 5.23 [ms]
[OGL LOG][Proc: 0]Uy_rhs: call_update: 10.848 [ms]
[OGL LOG][Preconditioner.H:121] Generate preconditioner BJ MaxBlockSize 1
[OGL LOG][Proc: 0]Uy: init_precond: 2.347 [ms]
[OGL LOG][StoppingCriterion.H:239] Creating stopping criterion with minIter 3 frequency 1
[OGL LOG][Proc: 0]Uy: generate_solver: 0.016 [ms]
[OGL LOG][Proc: 0]Uy: solve: 234.195 [ms]
[OGL LOG][Proc: 0]Uy: copy_x_back: 17.58 [ms]
[OGL LOG][lduLduBase.H:330] 
Statistics:
	Time per iteration: 78065 [mu s]
	Time per residual norm calculation: 1714.000000 [mu s]
	Time per iteration and DOF: 1.547156 [ns]
	Retrieve results bandwidth 1.923000 [GByte/s]
[OGL LOG][Proc: 0]Uy: solve_multi_gpu: 281.78 [ms]
BJcudaGKOBiCGStab:  Solving for Uy, Initial residual = 0.1571316923607675, Final residual = 0.01499549011984408, No Iterations 3
[OGL LOG][Proc: 0]: global_index_init: 0.238 [ms]
[OGL LOG][Proc: 0]Uz_local_coeffs: call_update: 0 [ms]
[OGL LOG][Proc: 0]Uz_non_local_coeffs: call_update: 0 [ms]
[OGL LOG][Proc: 0]Uz: update_local_matrix_data: 229.503 [ms]
[OGL LOG][Proc: 0]Uz: update_non_local_matrix_data: 1.042 [ms]
[OGL LOG][Proc: 0]Uz_matrix: call_update: 4.906 [ms]
[OGL LOG][Proc: 0]Uz_rhs: call_update: 11.238 [ms]
[OGL LOG][Preconditioner.H:121] Generate preconditioner BJ MaxBlockSize 1
[OGL LOG][Proc: 0]Uz: init_precond: 2.419 [ms]
[OGL LOG][StoppingCriterion.H:239] Creating stopping criterion with minIter 4 frequency 1
[OGL LOG][Proc: 0]Uz: generate_solver: 0.018 [ms]
[OGL LOG][Proc: 0]Uz: solve: 237.181 [ms]
[OGL LOG][Proc: 0]Uz: copy_x_back: 17.495 [ms]
[OGL LOG][lduLduBase.H:330] 
Statistics:
	Time per iteration: 79060 [mu s]
	Time per residual norm calculation: 1665.000000 [mu s]
	Time per iteration and DOF: 1.566876 [ns]
	Retrieve results bandwidth 1.933000 [GByte/s]
[OGL LOG][Proc: 0]Uz: solve_multi_gpu: 281.897 [ms]
BJcudaGKOBiCGStab:  Solving for Uz, Initial residual = 0.1272862839120379, Final residual = 0.009825466566361256, No Iterations 3
[OGL LOG][Proc: 0]: global_index_init: 0.025 [ms]
[OGL LOG][Proc: 0]p_local_coeffs: call_update: 0 [ms]
[OGL LOG][Proc: 0]p_non_local_coeffs: call_update: 0 [ms]
[OGL LOG][Proc: 0]p: update_local_matrix_data: 178.975 [ms]
[OGL LOG][Proc: 0]p: update_non_local_matrix_data: 1.286 [ms]
[OGL LOG][Proc: 0]p_matrix: call_update: 4.911 [ms]
[OGL LOG][Proc: 0]p_rhs: call_update: 11.544 [ms]
[OGL LOG][Preconditioner.H:121] Generate preconditioner BJ MaxBlockSize 1
[OGL LOG][Proc: 0]p: init_precond: 2.194 [ms]
[OGL LOG][StoppingCriterion.H:239] Creating stopping criterion with minIter 529 frequency 9
[OGL LOG][Proc: 0]p: generate_solver: 0.015 [ms]
[OGL LOG][Proc: 0]p: solve: 3914.99 [ms]
[OGL LOG][Proc: 0]p: copy_x_back: 17.811 [ms]
[OGL LOG][lduLduBase.H:330] 
Statistics:
	Time per iteration: 4345 [mu s]
	Time per residual norm calculation: 1323.000000 [mu s]
	Time per iteration and DOF: 0.086113 [ns]
	Retrieve results bandwidth 1.898000 [GByte/s]
[OGL LOG][Proc: 0]p: solve_multi_gpu: 3956.165 [ms]
BJcudaGKOCG:  Solving for p, Initial residual = 0.5050288580429657, Final residual = 0.004903928711652659, No Iterations 901
time step continuity errors : sum local = 0.02428211624248645, global = 0.0003281712257034851, cumulative = -0.005279305409378191
[OGL LOG][Proc: 0]: global_index_init: 0.027 [ms]
[OGL LOG][Proc: 0]nuTilda_local_coeffs: call_update: 0 [ms]
[OGL LOG][Proc: 0]nuTilda_non_local_coeffs: call_update: 0 [ms]
[OGL LOG][Proc: 0]nuTilda: update_local_matrix_data: 227.637 [ms]
[OGL LOG][Proc: 0]nuTilda: update_non_local_matrix_data: 1.043 [ms]
[OGL LOG][Proc: 0]nuTilda_matrix: call_update: 5.116 [ms]
[OGL LOG][Proc: 0]nuTilda_rhs: call_update: 11.25 [ms]
[OGL LOG][Preconditioner.H:121] Generate preconditioner BJ MaxBlockSize 1
[OGL LOG][Proc: 0]nuTilda: init_precond: 2.317 [ms]
[OGL LOG][StoppingCriterion.H:239] Creating stopping criterion with minIter 3 frequency 1
[OGL LOG][Proc: 0]nuTilda: generate_solver: 0.017 [ms]
[OGL LOG][Proc: 0]nuTilda: solve: 224.162 [ms]
[OGL LOG][Proc: 0]nuTilda: copy_x_back: 17.631 [ms]
[OGL LOG][lduLduBase.H:330] 
Statistics:
	Time per iteration: 112081 [mu s]
	Time per residual norm calculation: 1991.000000 [mu s]
	Time per iteration and DOF: 2.221313 [ns]
	Retrieve results bandwidth 1.918000 [GByte/s]
[OGL LOG][Proc: 0]nuTilda: solve_multi_gpu: 269.984 [ms]
BJcudaGKOBiCGStab:  Solving for nuTilda, Initial residual = 0.03672517257212796, Final residual = 0.003498203801785865, No Iterations 2
ExecutionTime = 1218.32 s  ClockTime = 1220 s

Time = 10

velocityDampingConstraint velocityDamping damped 1656 (0%) of cells, with max limit 300
[OGL LOG][Proc: 0]: global_index_init: 0.265 [ms]
[OGL LOG][Proc: 0]Ux_local_coeffs: call_update: 0 [ms]
[OGL LOG][Proc: 0]Ux_non_local_coeffs: call_update: 0 [ms]
[OGL LOG][Proc: 0]Ux: update_local_matrix_data: 231.598 [ms]
[OGL LOG][Proc: 0]Ux: update_non_local_matrix_data: 1.121 [ms]
[OGL LOG][Proc: 0]Ux_matrix: call_update: 4.823 [ms]
[OGL LOG][Proc: 0]Ux_rhs: call_update: 11.219 [ms]
[OGL LOG][Preconditioner.H:121] Generate preconditioner BJ MaxBlockSize 1
[OGL LOG][Proc: 0]Ux: init_precond: 2.279 [ms]
[OGL LOG][StoppingCriterion.H:239] Creating stopping criterion with minIter 4 frequency 1
[OGL LOG][Proc: 0]Ux: generate_solver: 0.015 [ms]
[OGL LOG][Proc: 0]Ux: solve: 240.009 [ms]
[OGL LOG][Proc: 0]Ux: copy_x_back: 17.738 [ms]
[OGL LOG][lduLduBase.H:330] 
Statistics:
	Time per iteration: 80003 [mu s]
	Time per residual norm calculation: 1777.000000 [mu s]
	Time per iteration and DOF: 1.585565 [ns]
	Retrieve results bandwidth 1.906000 [GByte/s]
[OGL LOG][Proc: 0]Ux: solve_multi_gpu: 282.752 [ms]
BJcudaGKOBiCGStab:  Solving for Ux, Initial residual = 0.0394610174302218, Final residual = 0.003625827855537951, No Iterations 3
[OGL LOG][Proc: 0]: global_index_init: 0.138 [ms]
[OGL LOG][Proc: 0]Uy_local_coeffs: call_update: 0 [ms]
[OGL LOG][Proc: 0]Uy_non_local_coeffs: call_update: 0 [ms]
[OGL LOG][Proc: 0]Uy: update_local_matrix_data: 241.823 [ms]
[OGL LOG][Proc: 0]Uy: update_non_local_matrix_data: 1.174 [ms]
[OGL LOG][Proc: 0]Uy_matrix: call_update: 11.058 [ms]
[OGL LOG][Proc: 0]Uy_rhs: call_update: 13.724 [ms]
[OGL LOG][Preconditioner.H:121] Generate preconditioner BJ MaxBlockSize 1
[OGL LOG][Proc: 0]Uy: init_precond: 2.47 [ms]
[OGL LOG][StoppingCriterion.H:239] Creating stopping criterion with minIter 3 frequency 1
[OGL LOG][Proc: 0]Uy: generate_solver: 0.015 [ms]
[OGL LOG][Proc: 0]Uy: solve: 279.435 [ms]
[OGL LOG][Proc: 0]Uy: copy_x_back: 17.334 [ms]
[OGL LOG][lduLduBase.H:330] 
Statistics:
	Time per iteration: 93145 [mu s]
	Time per residual norm calculation: 1401.000000 [mu s]
	Time per iteration and DOF: 1.846024 [ns]
	Retrieve results bandwidth 1.951000 [GByte/s]
[OGL LOG][Proc: 0]Uy: solve_multi_gpu: 340.223 [ms]
BJcudaGKOBiCGStab:  Solving for Uy, Initial residual = 0.103372407918108, Final residual = 0.008052363347141241, No Iterations 3
[OGL LOG][Proc: 0]: global_index_init: 0.236 [ms]
[OGL LOG][Proc: 0]Uz_local_coeffs: call_update: 0 [ms]
[OGL LOG][Proc: 0]Uz_non_local_coeffs: call_update: 0 [ms]
[OGL LOG][Proc: 0]Uz: update_local_matrix_data: 229.819 [ms]
[OGL LOG][Proc: 0]Uz: update_non_local_matrix_data: 1.205 [ms]
[OGL LOG][Proc: 0]Uz_matrix: call_update: 4.655 [ms]
[OGL LOG][Proc: 0]Uz_rhs: call_update: 11.384 [ms]
[OGL LOG][Preconditioner.H:121] Generate preconditioner BJ MaxBlockSize 1
[OGL LOG][Proc: 0]Uz: init_precond: 2.282 [ms]
[OGL LOG][StoppingCriterion.H:239] Creating stopping criterion with minIter 4 frequency 1
[OGL LOG][Proc: 0]Uz: generate_solver: 0.017 [ms]
[OGL LOG][Proc: 0]Uz: solve: 235.406 [ms]
[OGL LOG][Proc: 0]Uz: copy_x_back: 17.882 [ms]
[OGL LOG][lduLduBase.H:330] 
Statistics:
	Time per iteration: 78468 [mu s]
	Time per residual norm calculation: 1036.000000 [mu s]
	Time per iteration and DOF: 1.555143 [ns]
	Retrieve results bandwidth 1.891000 [GByte/s]
[OGL LOG][Proc: 0]Uz: solve_multi_gpu: 279.107 [ms]
BJcudaGKOBiCGStab:  Solving for Uz, Initial residual = 0.08190095821409694, Final residual = 0.006428735244326919, No Iterations 3
[OGL LOG][Proc: 0]: global_index_init: 0.021 [ms]
[OGL LOG][Proc: 0]p_local_coeffs: call_update: 0 [ms]
[OGL LOG][Proc: 0]p_non_local_coeffs: call_update: 0 [ms]
[OGL LOG][Proc: 0]p: update_local_matrix_data: 173.019 [ms]
[OGL LOG][Proc: 0]p: update_non_local_matrix_data: 1.087 [ms]
[OGL LOG][Proc: 0]p_matrix: call_update: 4.763 [ms]
[OGL LOG][Proc: 0]p_rhs: call_update: 11.276 [ms]
[OGL LOG][Preconditioner.H:121] Generate preconditioner BJ MaxBlockSize 1
[OGL LOG][Proc: 0]p: init_precond: 2.392 [ms]
[OGL LOG][StoppingCriterion.H:239] Creating stopping criterion with minIter 540 frequency 10
[OGL LOG][Proc: 0]p: generate_solver: 0.015 [ms]
[OGL LOG][Proc: 0]p: solve: 2412.546 [ms]
[OGL LOG][Proc: 0]p: copy_x_back: 17.814 [ms]
[OGL LOG][lduLduBase.H:330] 
Statistics:
	Time per iteration: 4459 [mu s]
	Time per residual norm calculation: 1028.000000 [mu s]
	Time per iteration and DOF: 0.088372 [ns]
	Retrieve results bandwidth 1.898000 [GByte/s]
[OGL LOG][Proc: 0]p: solve_multi_gpu: 2459.994 [ms]
BJcudaGKOCG:  Solving for p, Initial residual = 0.2631540773488497, Final residual = 0.002355179277897241, No Iterations 541
time step continuity errors : sum local = 0.014147078609016, global = 0.001737972155082378, cumulative = -0.003541333254295813
[OGL LOG][Proc: 0]: global_index_init: 0.023 [ms]
[OGL LOG][Proc: 0]nuTilda_local_coeffs: call_update: 0 [ms]
[OGL LOG][Proc: 0]nuTilda_non_local_coeffs: call_update: 0 [ms]
[OGL LOG][Proc: 0]nuTilda: update_local_matrix_data: 228.624 [ms]
[OGL LOG][Proc: 0]nuTilda: update_non_local_matrix_data: 1.033 [ms]
[OGL LOG][Proc: 0]nuTilda_matrix: call_update: 3.316 [ms]
[OGL LOG][Proc: 0]nuTilda_rhs: call_update: 12.384 [ms]
[OGL LOG][Preconditioner.H:121] Generate preconditioner BJ MaxBlockSize 1
[OGL LOG][Proc: 0]nuTilda: init_precond: 2.472 [ms]
[OGL LOG][StoppingCriterion.H:239] Creating stopping criterion with minIter 2 frequency 1
[OGL LOG][Proc: 0]nuTilda: generate_solver: 0.015 [ms]
[OGL LOG][Proc: 0]nuTilda: solve: 231.221 [ms]
[OGL LOG][Proc: 0]nuTilda: copy_x_back: 18.024 [ms]
[OGL LOG][lduLduBase.H:330] 
Statistics:
	Time per iteration: 115610 [mu s]
	Time per residual norm calculation: 1746.000000 [mu s]
	Time per iteration and DOF: 2.291254 [ns]
	Retrieve results bandwidth 1.876000 [GByte/s]
[OGL LOG][Proc: 0]nuTilda: solve_multi_gpu: 271.743 [ms]
BJcudaGKOBiCGStab:  Solving for nuTilda, Initial residual = 0.03194728813255063, Final residual = 0.001617440363055841, No Iterations 2
ExecutionTime = 1239.91 s  ClockTime = 1242 s

Time = 11

velocityDampingConstraint velocityDamping damped 2472 (0%) of cells, with max limit 300
[OGL LOG][Proc: 0]: global_index_init: 0.323 [ms]
[OGL LOG][Proc: 0]Ux_local_coeffs: call_update: 0 [ms]
[OGL LOG][Proc: 0]Ux_non_local_coeffs: call_update: 0 [ms]
[OGL LOG][Proc: 0]Ux: update_local_matrix_data: 228.483 [ms]
[OGL LOG][Proc: 0]Ux: update_non_local_matrix_data: 1.009 [ms]
[OGL LOG][Proc: 0]Ux_matrix: call_update: 3.775 [ms]
[OGL LOG][Proc: 0]Ux_rhs: call_update: 12.279 [ms]
[OGL LOG][Preconditioner.H:121] Generate preconditioner BJ MaxBlockSize 1
[OGL LOG][Proc: 0]Ux: init_precond: 3.266 [ms]
[OGL LOG][StoppingCriterion.H:239] Creating stopping criterion with minIter 4 frequency 1
[OGL LOG][Proc: 0]Ux: generate_solver: 0.022 [ms]
[OGL LOG][Proc: 0]Ux: solve: 271.552 [ms]
[OGL LOG][Proc: 0]Ux: copy_x_back: 17.535 [ms]
[OGL LOG][lduLduBase.H:330] 
Statistics:
	Time per iteration: 67888 [mu s]
	Time per residual norm calculation: 1781.000000 [mu s]
	Time per iteration and DOF: 1.345460 [ns]
	Retrieve results bandwidth 1.928000 [GByte/s]
[OGL LOG][Proc: 0]Ux: solve_multi_gpu: 318.079 [ms]
BJcudaGKOBiCGStab:  Solving for Ux, Initial residual = 0.05831202725239566, Final residual = 0.002221063408591838, No Iterations 4
[OGL LOG][Proc: 0]: global_index_init: 0.26 [ms]
[OGL LOG][Proc: 0]Uy_local_coeffs: call_update: 0 [ms]
[OGL LOG][Proc: 0]Uy_non_local_coeffs: call_update: 0 [ms]
[OGL LOG][Proc: 0]Uy: update_local_matrix_data: 225.116 [ms]
[OGL LOG][Proc: 0]Uy: update_non_local_matrix_data: 1.053 [ms]
[OGL LOG][Proc: 0]Uy_matrix: call_update: 4.89 [ms]
[OGL LOG][Proc: 0]Uy_rhs: call_update: 11.243 [ms]
[OGL LOG][Preconditioner.H:121] Generate preconditioner BJ MaxBlockSize 1
[OGL LOG][Proc: 0]Uy: init_precond: 2.325 [ms]
[OGL LOG][StoppingCriterion.H:239] Creating stopping criterion with minIter 4 frequency 1
[...]
time step continuity errors : sum local = 0.000758854437377374, global = 5.293537704198754e-06, cumulative = -0.00372550156873048
[OGL LOG][Proc: 0]: global_index_init: 0.024 [ms]
[OGL LOG][Proc: 0]nuTilda_local_coeffs: call_update: 0 [ms]
[OGL LOG][Proc: 0]nuTilda_non_local_coeffs: call_update: 0 [ms]
[OGL LOG][Proc: 0]nuTilda: update_local_matrix_data: 232.178 [ms]
[OGL LOG][Proc: 0]nuTilda: update_non_local_matrix_data: 1.16 [ms]
[OGL LOG][Proc: 0]nuTilda_matrix: call_update: 4.925 [ms]
[OGL LOG][Proc: 0]nuTilda_rhs: call_update: 11.397 [ms]
[OGL LOG][Preconditioner.H:121] Generate preconditioner BJ MaxBlockSize 1
[OGL LOG][Proc: 0]nuTilda: init_precond: 2.278 [ms]
[OGL LOG][StoppingCriterion.H:239] Creating stopping criterion with minIter 3 frequency 1
[OGL LOG][Proc: 0]nuTilda: generate_solver: 0.015 [ms]
[OGL LOG][Proc: 0]nuTilda: solve: 230.304 [ms]
[OGL LOG][Proc: 0]nuTilda: copy_x_back: 17.823 [ms]
[OGL LOG][lduLduBase.H:330] 
Statistics:
	Time per iteration: 115152 [mu s]
	Time per residual norm calculation: 1849.000000 [mu s]
	Time per iteration and DOF: 2.282177 [ns]
	Retrieve results bandwidth 1.897000 [GByte/s]
[OGL LOG][Proc: 0]nuTilda: solve_multi_gpu: 270.803 [ms]
BJcudaGKOBiCGStab:  Solving for nuTilda, Initial residual = 0.009459196143775236, Final residual = 0.0006275863899070222, No Iterations 2
bounding nuTilda, min: -0.000275648678323813 max: 0.02717751996198627 average: 0.000961407606485983
ExecutionTime = 3098.89 s  ClockTime = 3106 s

Time = 98

velocityDampingConstraint velocityDamping damped 0 (0%) of cells, with max limit 300
[OGL LOG][Proc: 0]: global_index_init: 0.24 [ms]
[OGL LOG][Proc: 0]Ux_local_coeffs: call_update: 0 [ms]
[OGL LOG][Proc: 0]Ux_non_local_coeffs: call_update: 0 [ms]
[OGL LOG][Proc: 0]Ux: update_local_matrix_data: 232.281 [ms]
[OGL LOG][Proc: 0]Ux: update_non_local_matrix_data: 1.017 [ms]
[OGL LOG][Proc: 0]Ux_matrix: call_update: 4.967 [ms]
[OGL LOG][Proc: 0]Ux_rhs: call_update: 17.213 [ms]
[OGL LOG][Preconditioner.H:121] Generate preconditioner BJ MaxBlockSize 1
[OGL LOG][Proc: 0]Ux: init_precond: 2.219 [ms]
[OGL LOG][StoppingCriterion.H:239] Creating stopping criterion with minIter 3 frequency 1
[OGL LOG][Proc: 0]Ux: generate_solver: 0.026 [ms]
[OGL LOG][Proc: 0]Ux: solve: 280.053 [ms]
[OGL LOG][Proc: 0]Ux: copy_x_back: 18.005 [ms]
[OGL LOG][lduLduBase.H:330] 
Statistics:
	Time per iteration: 93351 [mu s]
	Time per residual norm calculation: 1594.000000 [mu s]
	Time per iteration and DOF: 1.850107 [ns]
	Retrieve results bandwidth 1.878000 [GByte/s]
[OGL LOG][Proc: 0]Ux: solve_multi_gpu: 333.447 [ms]
BJcudaGKOBiCGStab:  Solving for Ux, Initial residual = 0.003401496380245059, Final residual = 0.0003325496909687598, No Iterations 3
[OGL LOG][Proc: 0]: global_index_init: 5.925 [ms]
[OGL LOG][Proc: 0]Uy_local_coeffs: call_update: 0 [ms]
[OGL LOG][Proc: 0]Uy_non_local_coeffs: call_update: 0 [ms]
[OGL LOG][Proc: 0]Uy: update_local_matrix_data: 231.368 [ms]
[OGL LOG][Proc: 0]Uy: update_non_local_matrix_data: 1.008 [ms]
[OGL LOG][Proc: 0]Uy_matrix: call_update: 3.486 [ms]
[OGL LOG][Proc: 0]Uy_rhs: call_update: 12.121 [ms]
[OGL LOG][Preconditioner.H:121] Generate preconditioner BJ MaxBlockSize 1
[OGL LOG][Proc: 0]Uy: init_precond: 2.534 [ms]
[OGL LOG][StoppingCriterion.H:239] Creating stopping criterion with minIter 4 frequency 1
[OGL LOG][Proc: 0]Uy: generate_solver: 0.016 [ms]
[OGL LOG][Proc: 0]Uy: solve: 248.48 [ms]
[OGL LOG][Proc: 0]Uy: copy_x_back: 17.437 [ms]
[OGL LOG][lduLduBase.H:330] 
Statistics:
	Time per iteration: 62120 [mu s]
	Time per residual norm calculation: 1740.000000 [mu s]
	Time per iteration and DOF: 1.231145 [ns]
	Retrieve results bandwidth 1.939000 [GByte/s]
[OGL LOG][Proc: 0]Uy: solve_multi_gpu: 292.107 [ms]
BJcudaGKOBiCGStab:  Solving for Uy, Initial residual = 0.01995923665337638, Final residual = 0.001143530704204893, No Iterations 4
[OGL LOG][Proc: 0]: global_index_init: 0.256 [ms]
[OGL LOG][Proc: 0]Uz_local_coeffs: call_update: 0 [ms]
[OGL LOG][Proc: 0]Uz_non_local_coeffs: call_update: 0 [ms]
[OGL LOG][Proc: 0]Uz: update_local_matrix_data: 230.57 [ms]
[OGL LOG][Proc: 0]Uz: update_non_local_matrix_data: 1.01 [ms]
[OGL LOG][Proc: 0]Uz_matrix: call_update: 4.804 [ms]
[OGL LOG][Proc: 0]Uz_rhs: call_update: 10.87 [ms]
[OGL LOG][Preconditioner.H:121] Generate preconditioner BJ MaxBlockSize 1
[OGL LOG][Proc: 0]Uz: init_precond: 2.268 [ms]
[OGL LOG][StoppingCriterion.H:239] Creating stopping criterion with minIter 4 frequency 1
[OGL LOG][Proc: 0]Uz: generate_solver: 0.017 [ms]
[OGL LOG][Proc: 0]Uz: solve: 244.898 [ms]
[OGL LOG][Proc: 0]Uz: copy_x_back: 18.061 [ms]
[OGL LOG][lduLduBase.H:330] 
Statistics:
	Time per iteration: 61224 [mu s]
	Time per residual norm calculation: 1240.000000 [mu s]
	Time per iteration and DOF: 1.213388 [ns]
	Retrieve results bandwidth 1.872000 [GByte/s]
[OGL LOG][Proc: 0]Uz: solve_multi_gpu: 287.419 [ms]
BJcudaGKOBiCGStab:  Solving for Uz, Initial residual = 0.01850316067023322, Final residual = 0.0008772227707025159, No Iterations 4
[OGL LOG][Proc: 0]: global_index_init: 3.389 [ms]
[OGL LOG][Proc: 0]p_local_coeffs: call_update: 0 [ms]
[OGL LOG][Proc: 0]p_non_local_coeffs: call_update: 0 [ms]
[OGL LOG][Proc: 0]p: update_local_matrix_data: 177.657 [ms]
[OGL LOG][Proc: 0]p: update_non_local_matrix_data: 1.036 [ms]
[OGL LOG][Proc: 0]p_matrix: call_update: 4.417 [ms]
[OGL LOG][Proc: 0]p_rhs: call_update: 11.773 [ms]
[OGL LOG][Preconditioner.H:121] Generate preconditioner BJ MaxBlockSize 1
[OGL LOG][Proc: 0]p: init_precond: 2.301 [ms]
[OGL LOG][StoppingCriterion.H:239] Creating stopping criterion with minIter 299 frequency 8
[OGL LOG][Proc: 0]p: generate_solver: 0.016 [ms]
[OGL LOG][Proc: 0]p: solve: 2693.813 [ms]
[OGL LOG][Proc: 0]p: copy_x_back: 16.563 [ms]
[OGL LOG][lduLduBase.H:330] 
Statistics:
	Time per iteration: 4604 [mu s]
	Time per residual norm calculation: 1314.000000 [mu s]
	Time per iteration and DOF: 0.091246 [ns]
	Retrieve results bandwidth 2.041000 [GByte/s]
[OGL LOG][Proc: 0]p: solve_multi_gpu: 2740.113 [ms]
BJcudaGKOCG:  Solving for p, Initial residual = 0.08853342503153139, Final residual = 0.0008642920440960626, No Iterations 585
time step continuity errors : sum local = 0.000696817842181503, global = -4.421542165795615e-05, cumulative = -0.003769716990388436
[OGL LOG][Proc: 0]: global_index_init: 0.023 [ms]
[OGL LOG][Proc: 0]nuTilda_local_coeffs: call_update: 0 [ms]
[OGL LOG][Proc: 0]nuTilda_non_local_coeffs: call_update: 0 [ms]
[OGL LOG][Proc: 0]nuTilda: update_local_matrix_data: 230.082 [ms]
[OGL LOG][Proc: 0]nuTilda: update_non_local_matrix_data: 1.067 [ms]
[OGL LOG][Proc: 0]nuTilda_matrix: call_update: 4.54 [ms]
[OGL LOG][Proc: 0]nuTilda_rhs: call_update: 11.489 [ms]
[OGL LOG][Preconditioner.H:121] Generate preconditioner BJ MaxBlockSize 1
[OGL LOG][Proc: 0]nuTilda: init_precond: 2.205 [ms]
[OGL LOG][StoppingCriterion.H:239] Creating stopping criterion with minIter 3 frequency 1
[OGL LOG][Proc: 0]nuTilda: generate_solver: 0.016 [ms]
[OGL LOG][Proc: 0]nuTilda: solve: 229.558 [ms]
[OGL LOG][Proc: 0]nuTilda: copy_x_back: 18.21 [ms]
[OGL LOG][lduLduBase.H:330] 
Statistics:
	Time per iteration: 114779 [mu s]
	Time per residual norm calculation: 1571.000000 [mu s]
	Time per iteration and DOF: 2.274784 [ns]
	Retrieve results bandwidth 1.857000 [GByte/s]
[OGL LOG][Proc: 0]nuTilda: solve_multi_gpu: 271.946 [ms]
BJcudaGKOBiCGStab:  Solving for nuTilda, Initial residual = 0.006715833845141173, Final residual = 0.0005405358008882566, No Iterations 2
bounding nuTilda, min: -0.0004986399643130126 max: 0.02763048939507363 average: 0.0009858503087693596
ExecutionTime = 3120.54 s  ClockTime = 3128 s

Time = 99

velocityDampingConstraint velocityDamping damped 0 (0%) of cells, with max limit 300
[OGL LOG][Proc: 0]: global_index_init: 0.26 [ms]
[OGL LOG][Proc: 0]Ux_local_coeffs: call_update: 0 [ms]
[OGL LOG][Proc: 0]Ux_non_local_coeffs: call_update: 0 [ms]
[OGL LOG][Proc: 0]Ux: update_local_matrix_data: 232.421 [ms]
[OGL LOG][Proc: 0]Ux: update_non_local_matrix_data: 1.159 [ms]
[OGL LOG][Proc: 0]Ux_matrix: call_update: 5.017 [ms]
[OGL LOG][Proc: 0]Ux_rhs: call_update: 10.923 [ms]
[OGL LOG][Preconditioner.H:121] Generate preconditioner BJ MaxBlockSize 1
[OGL LOG][Proc: 0]Ux: init_precond: 2.323 [ms]
[OGL LOG][StoppingCriterion.H:239] Creating stopping criterion with minIter 3 frequency 1
[OGL LOG][Proc: 0]Ux: generate_solver: 0.018 [ms]
[OGL LOG][Proc: 0]Ux: solve: 235.662 [ms]
[OGL LOG][Proc: 0]Ux: copy_x_back: 18.221 [ms]
[OGL LOG][lduLduBase.H:330] 
Statistics:
	Time per iteration: 78554 [mu s]
	Time per residual norm calculation: 1716.000000 [mu s]
	Time per iteration and DOF: 1.556848 [ns]
	Retrieve results bandwidth 1.856000 [GByte/s]
[OGL LOG][Proc: 0]Ux: solve_multi_gpu: 276.395 [ms]
BJcudaGKOBiCGStab:  Solving for Ux, Initial residual = 0.003431117187201323, Final residual = 0.0003149896023249886, No Iterations 3
[OGL LOG][Proc: 0]: global_index_init: 0.236 [ms]
[OGL LOG][Proc: 0]Uy_local_coeffs: call_update: 0 [ms]
[OGL LOG][Proc: 0]Uy_non_local_coeffs: call_update: 0 [ms]
[OGL LOG][Proc: 0]Uy: update_local_matrix_data: 231.186 [ms]
[OGL LOG][Proc: 0]Uy: update_non_local_matrix_data: 1.171 [ms]
[OGL LOG][Proc: 0]Uy_matrix: call_update: 5.215 [ms]
[OGL LOG][Proc: 0]Uy_rhs: call_update: 11.23 [ms]
[OGL LOG][Preconditioner.H:121] Generate preconditioner BJ MaxBlockSize 1
[OGL LOG][Proc: 0]Uy: init_precond: 2.293 [ms]
[OGL LOG][StoppingCriterion.H:239] Creating stopping criterion with minIter 4 frequency 1
[OGL LOG][Proc: 0]Uy: generate_solver: 0.017 [ms]
[OGL LOG][Proc: 0]Uy: solve: 245.342 [ms]
[OGL LOG][Proc: 0]Uy: copy_x_back: 17.637 [ms]
[OGL LOG][lduLduBase.H:330] 
Statistics:
	Time per iteration: 61335 [mu s]
	Time per residual norm calculation: 1777.000000 [mu s]
	Time per iteration and DOF: 1.215587 [ns]
	Retrieve results bandwidth 1.917000 [GByte/s]
[OGL LOG][Proc: 0]Uy: solve_multi_gpu: 288.71 [ms]
BJcudaGKOBiCGStab:  Solving for Uy, Initial residual = 0.0198606917153864, Final residual = 0.0009588021891072663, No Iterations 4
[OGL LOG][Proc: 0]: global_index_init: 0.249 [ms]
[OGL LOG][Proc: 0]Uz_local_coeffs: call_update: 0 [ms]
[OGL LOG][Proc: 0]Uz_non_local_coeffs: call_update: 0 [ms]
[OGL LOG][Proc: 0]Uz: update_local_matrix_data: 230.623 [ms]
[OGL LOG][Proc: 0]Uz: update_non_local_matrix_data: 1.139 [ms]
[OGL LOG][Proc: 0]Uz_matrix: call_update: 4.657 [ms]
[OGL LOG][Proc: 0]Uz_rhs: call_update: 10.978 [ms]
[OGL LOG][Preconditioner.H:121] Generate preconditioner BJ MaxBlockSize 1
[OGL LOG][Proc: 0]Uz: init_precond: 2.464 [ms]
[OGL LOG][StoppingCriterion.H:239] Creating stopping criterion with minIter 4 frequency 1
[OGL LOG][Proc: 0]Uz: generate_solver: 0.018 [ms]
[OGL LOG][Proc: 0]Uz: solve: 245.13 [ms]
[OGL LOG][Proc: 0]Uz: copy_x_back: 17.409 [ms]
[OGL LOG][lduLduBase.H:330] 
Statistics:
	Time per iteration: 61282 [mu s]
	Time per residual norm calculation: 1662.000000 [mu s]
	Time per iteration and DOF: 1.214537 [ns]
	Retrieve results bandwidth 1.942000 [GByte/s]
[OGL LOG][Proc: 0]Uz: solve_multi_gpu: 287.397 [ms]
BJcudaGKOBiCGStab:  Solving for Uz, Initial residual = 0.01855923084994147, Final residual = 0.0008958217421818261, No Iterations 4
[OGL LOG][Proc: 0]: global_index_init: 0.332 [ms]
[OGL LOG][Proc: 0]p_local_coeffs: call_update: 0 [ms]
[OGL LOG][Proc: 0]p_non_local_coeffs: call_update: 0 [ms]
[OGL LOG][Proc: 0]p: update_local_matrix_data: 177.221 [ms]
[OGL LOG][Proc: 0]p: update_non_local_matrix_data: 1.187 [ms]
[OGL LOG][Proc: 0]p_matrix: call_update: 5.452 [ms]
[OGL LOG][Proc: 0]p_rhs: call_update: 11.29 [ms]
[OGL LOG][Preconditioner.H:121] Generate preconditioner BJ MaxBlockSize 1
[OGL LOG][Proc: 0]p: init_precond: 2.326 [ms]
[OGL LOG][StoppingCriterion.H:239] Creating stopping criterion with minIter 351 frequency 8
[OGL LOG][Proc: 0]p: generate_solver: 0.016 [ms]
[OGL LOG][Proc: 0]p: solve: 1655.299 [ms]
[OGL LOG][Proc: 0]p: copy_x_back: 17.989 [ms]
[OGL LOG][lduLduBase.H:330] 
Statistics:
	Time per iteration: 4689 [mu s]
	Time per residual norm calculation: 1470.000000 [mu s]
	Time per iteration and DOF: 0.092930 [ns]
	Retrieve results bandwidth 1.880000 [GByte/s]
[OGL LOG][Proc: 0]p: solve_multi_gpu: 1699.849 [ms]
BJcudaGKOCG:  Solving for p, Initial residual = 0.08412359587025496, Final residual = 0.0005775367199797444, No Iterations 353
time step continuity errors : sum local = 0.0004410504507134051, global = -4.700454383381316e-05, cumulative = -0.003816721534222249
[OGL LOG][Proc: 0]: global_index_init: 0.027 [ms]
[OGL LOG][Proc: 0]nuTilda_local_coeffs: call_update: 0 [ms]
[OGL LOG][Proc: 0]nuTilda_non_local_coeffs: call_update: 0 [ms]
[OGL LOG][Proc: 0]nuTilda: update_local_matrix_data: 233.271 [ms]
[OGL LOG][Proc: 0]nuTilda: update_non_local_matrix_data: 1.028 [ms]
[OGL LOG][Proc: 0]nuTilda_matrix: call_update: 5.263 [ms]
[OGL LOG][Proc: 0]nuTilda_rhs: call_update: 11.294 [ms]
[OGL LOG][Preconditioner.H:121] Generate preconditioner BJ MaxBlockSize 1
[OGL LOG][Proc: 0]nuTilda: init_precond: 2.297 [ms]
[OGL LOG][StoppingCriterion.H:239] Creating stopping criterion with minIter 3 frequency 1
[OGL LOG][Proc: 0]nuTilda: generate_solver: 0.016 [ms]
[OGL LOG][Proc: 0]nuTilda: solve: 228.784 [ms]
[OGL LOG][Proc: 0]nuTilda: copy_x_back: 17.79 [ms]
[OGL LOG][lduLduBase.H:330] 
Statistics:
	Time per iteration: 114392 [mu s]
	Time per residual norm calculation: 1670.000000 [mu s]
	Time per iteration and DOF: 2.267115 [ns]
	Retrieve results bandwidth 1.901000 [GByte/s]
[OGL LOG][Proc: 0]nuTilda: solve_multi_gpu: 269.429 [ms]
BJcudaGKOBiCGStab:  Solving for nuTilda, Initial residual = 0.009216609428661962, Final residual = 0.0006266398364584106, No Iterations 2
bounding nuTilda, min: -0.0003461548437635779 max: 0.02815654799912391 average: 0.00100735197047613
ExecutionTime = 3141.15 s  ClockTime = 3148 s

Time = 100

velocityDampingConstraint velocityDamping damped 0 (0%) of cells, with max limit 300
[OGL LOG][Proc: 0]: global_index_init: 0.266 [ms]
[OGL LOG][Proc: 0]Ux_local_coeffs: call_update: 0 [ms]
[OGL LOG][Proc: 0]Ux_non_local_coeffs: call_update: 0 [ms]
[OGL LOG][Proc: 0]Ux: update_local_matrix_data: 231.945 [ms]
[OGL LOG][Proc: 0]Ux: update_non_local_matrix_data: 1.039 [ms]
[OGL LOG][Proc: 0]Ux_matrix: call_update: 5.348 [ms]
[OGL LOG][Proc: 0]Ux_rhs: call_update: 11.087 [ms]
[OGL LOG][Preconditioner.H:121] Generate preconditioner BJ MaxBlockSize 1
[OGL LOG][Proc: 0]Ux: init_precond: 1.539 [ms]
[OGL LOG][StoppingCriterion.H:239] Creating stopping criterion with minIter 3 frequency 1
[OGL LOG][Proc: 0]Ux: generate_solver: 0.027 [ms]
[OGL LOG][Proc: 0]Ux: solve: 244.799 [ms]
[OGL LOG][Proc: 0]Ux: copy_x_back: 17.227 [ms]
[OGL LOG][lduLduBase.H:330] 
Statistics:
	Time per iteration: 81599 [mu s]
	Time per residual norm calculation: 1595.000000 [mu s]
	Time per iteration and DOF: 1.617196 [ns]
	Retrieve results bandwidth 1.963000 [GByte/s]
[OGL LOG][Proc: 0]Ux: solve_multi_gpu: 286.611 [ms]
BJcudaGKOBiCGStab:  Solving for Ux, Initial residual = 0.003418452637117942, Final residual = 0.0002126440519593651, No Iterations 3
[OGL LOG][Proc: 0]: global_index_init: 0.23 [ms]
[OGL LOG][Proc: 0]Uy_local_coeffs: call_update: 0 [ms]
[OGL LOG][Proc: 0]Uy_non_local_coeffs: call_update: 0 [ms]
[OGL LOG][Proc: 0]Uy: update_local_matrix_data: 232.423 [ms]
[OGL LOG][Proc: 0]Uy: update_non_local_matrix_data: 1.058 [ms]
[OGL LOG][Proc: 0]Uy_matrix: call_update: 4.58 [ms]
[OGL LOG][Proc: 0]Uy_rhs: call_update: 11.339 [ms]
[OGL LOG][Preconditioner.H:121] Generate preconditioner BJ MaxBlockSize 1
[OGL LOG][Proc: 0]Uy: init_precond: 2.315 [ms]
[OGL LOG][StoppingCriterion.H:239] Creating stopping criterion with minIter 4 frequency 1
[OGL LOG][Proc: 0]Uy: generate_solver: 0.017 [ms]
[OGL LOG][Proc: 0]Uy: solve: 244.476 [ms]
[OGL LOG][Proc: 0]Uy: copy_x_back: 17.806 [ms]
[OGL LOG][lduLduBase.H:330] 
Statistics:
	Time per iteration: 61119 [mu s]
	Time per residual norm calculation: 1515.000000 [mu s]
	Time per iteration and DOF: 1.211307 [ns]
	Retrieve results bandwidth 1.899000 [GByte/s]
[OGL LOG][Proc: 0]Uy: solve_multi_gpu: 286.703 [ms]
BJcudaGKOBiCGStab:  Solving for Uy, Initial residual = 0.01929275416280267, Final residual = 0.0008154770783057498, No Iterations 4
[OGL LOG][Proc: 0]: global_index_init: 0.213 [ms]
[OGL LOG][Proc: 0]Uz_local_coeffs: call_update: 0 [ms]
[OGL LOG][Proc: 0]Uz_non_local_coeffs: call_update: 0 [ms]
[OGL LOG][Proc: 0]Uz: update_local_matrix_data: 233.529 [ms]
[OGL LOG][Proc: 0]Uz: update_non_local_matrix_data: 0.958 [ms]
[OGL LOG][Proc: 0]Uz_matrix: call_update: 4.364 [ms]
[OGL LOG][Proc: 0]Uz_rhs: call_update: 11.772 [ms]
[OGL LOG][Preconditioner.H:121] Generate preconditioner BJ MaxBlockSize 1
[OGL LOG][Proc: 0]Uz: init_precond: 2.215 [ms]
[OGL LOG][StoppingCriterion.H:239] Creating stopping criterion with minIter 4 frequency 1
[OGL LOG][Proc: 0]Uz: generate_solver: 0.016 [ms]
[OGL LOG][Proc: 0]Uz: solve: 245.725 [ms]
[OGL LOG][Proc: 0]Uz: copy_x_back: 17.885 [ms]
[OGL LOG][lduLduBase.H:330] 
Statistics:
	Time per iteration: 61431 [mu s]
	Time per residual norm calculation: 1807.000000 [mu s]
	Time per iteration and DOF: 1.217490 [ns]
	Retrieve results bandwidth 1.891000 [GByte/s]
[OGL LOG][Proc: 0]Uz: solve_multi_gpu: 285.376 [ms]
BJcudaGKOBiCGStab:  Solving for Uz, Initial residual = 0.01883778506923195, Final residual = 0.0009948345953128526, No Iterations 4
[OGL LOG][Proc: 0]: global_index_init: 0.117 [ms]
[OGL LOG][Proc: 0]p_local_coeffs: call_update: 0 [ms]
[OGL LOG][Proc: 0]p_non_local_coeffs: call_update: 0 [ms]
[OGL LOG][Proc: 0]p: update_local_matrix_data: 175.642 [ms]
[OGL LOG][Proc: 0]p: update_non_local_matrix_data: 1.059 [ms]
[OGL LOG][Proc: 0]p_matrix: call_update: 4.637 [ms]
[OGL LOG][Proc: 0]p_rhs: call_update: 11.352 [ms]
[OGL LOG][Preconditioner.H:121] Generate preconditioner BJ MaxBlockSize 1
[OGL LOG][Proc: 0]p: init_precond: 2.274 [ms]
[OGL LOG][StoppingCriterion.H:239] Creating stopping criterion with minIter 211 frequency 6
[OGL LOG][Proc: 0]p: generate_solver: 0.016 [ms]
[OGL LOG][Proc: 0]p: solve: 1150.149 [ms]
[OGL LOG][Proc: 0]p: copy_x_back: 17.895 [ms]
[OGL LOG][lduLduBase.H:330] 
Statistics:
	Time per iteration: 5300 [mu s]
	Time per residual norm calculation: 1467.000000 [mu s]
	Time per iteration and DOF: 0.105040 [ns]
	Retrieve results bandwidth 1.890000 [GByte/s]
[OGL LOG][Proc: 0]p: solve_multi_gpu: 1194.965 [ms]
BJcudaGKOCG:  Solving for p, Initial residual = 0.08073986971553818, Final residual = 0.0006893028209241106, No Iterations 217
time step continuity errors : sum local = 0.0005166438640483456, global = 5.292911253136606e-05, cumulative = -0.003763792421690883
[OGL LOG][Proc: 0]: global_index_init: 0.02 [ms]
[OGL LOG][Proc: 0]nuTilda_local_coeffs: call_update: 0 [ms]
[OGL LOG][Proc: 0]nuTilda_non_local_coeffs: call_update: 0 [ms]
[OGL LOG][Proc: 0]nuTilda: update_local_matrix_data: 225 [ms]
[OGL LOG][Proc: 0]nuTilda: update_non_local_matrix_data: 1.055 [ms]
[OGL LOG][Proc: 0]nuTilda_matrix: call_update: 5.393 [ms]
[OGL LOG][Proc: 0]nuTilda_rhs: call_update: 11.256 [ms]
[OGL LOG][Preconditioner.H:121] Generate preconditioner BJ MaxBlockSize 1
[OGL LOG][Proc: 0]nuTilda: init_precond: 2.27 [ms]
[OGL LOG][StoppingCriterion.H:239] Creating stopping criterion with minIter 3 frequency 1
[OGL LOG][Proc: 0]nuTilda: generate_solver: 0.018 [ms]
[OGL LOG][Proc: 0]nuTilda: solve: 234.308 [ms]
[OGL LOG][Proc: 0]nuTilda: copy_x_back: 17.829 [ms]
[OGL LOG][lduLduBase.H:330] 
Statistics:
	Time per iteration: 78102 [mu s]
	Time per residual norm calculation: 1792.000000 [mu s]
	Time per iteration and DOF: 1.547890 [ns]
	Retrieve results bandwidth 1.897000 [GByte/s]
[OGL LOG][Proc: 0]nuTilda: solve_multi_gpu: 283.611 [ms]
BJcudaGKOBiCGStab:  Solving for nuTilda, Initial residual = 0.006605092145154538, Final residual = 0.000424724687165293, No Iterations 3
bounding nuTilda, min: -0.0008892328589673003 max: 0.02857170616800343 average: 0.001033102867981403
ExecutionTime = 3161.42 s  ClockTime = 3169 s

End

Finalising parallel run
