/*---------------------------------------------------------------------------*\
| =========                 |                                                 |
| \\      /  F ield         | OpenFOAM: The Open Source CFD Toolbox           |
|  \\    /   O peration     | Version:  2306                                  |
|   \\  /    A nd           | Website:  www.openfoam.com                      |
|    \\/     M anipulation  |                                                 |
\*---------------------------------------------------------------------------*/
Build  : a6e826bd55-20230630 OPENFOAM=2306 version=v2306
Arch   : "LSB;label=32;scalar=64"
Exec   : icoFoam -parallel -case /tmp/lidDrivenCavity/workspace/1bd1cf1053fab7fc891a13c725acdacb/case
Date   : Dec 21 2023
Time   : 03:48:24
Host   : nla-gpu2.ianm.kit.edu
PID    : 393894
I/O    : uncollated
Case   : /tmp/lidDrivenCavity/workspace/1bd1cf1053fab7fc891a13c725acdacb/case
nProcs : 32
Hosts  :
(
    (nla-gpu2.ianm.kit.edu 32)
)
Pstream initialized with:
    floatTransfer      : false
    nProcsSimpleSum    : 0
    nonBlockingExchange: 0 (tuning: 0)
    exchange algorithm : -1
    commsType          : nonBlocking
    polling iterations : 0
trapFpe: Floating point exception trapping enabled (FOAM_SIGFPE).
fileModificationChecking : Monitoring run-time modified files using timeStampMaster (fileModificationSkew 5, maxFileModificationPolls 20)
allowSystemOperations : Allowing user-supplied system call operations

// * * * * * * * * * * * * * * * * * * * * * * * * * * * * * * * * * * * * * //
Create time

--> FOAM Warning : 
    From void* Foam::dlLibraryTable::openLibrary(const Foam::fileName&, bool)
    in file db/dynamicLibrary/dlLibraryTable/dlLibraryTable.C at line 188
    Could not load "libpetscFoam.so"
libpetscFoam.so: cannot open shared object file: No such file or directory
Create mesh for time = 0


PISO: Operating solver in PISO mode

Reading transportProperties

Reading field p

Reading field U

Reading/calculating face flux field phi


Starting time loop

Time = 0.000166

Courant Number mean: 8.14055e-18 max: 3.11001e-14
[INFO] MatrixAssemblyU: 243.356 [ms]
DILUPBiCGStab:  Solving for Ux, Initial residual = 1, Final residual = 0.0163135, No Iterations 5
DILUPBiCGStab:  Solving for Uy:  solution singularity
DILUPBiCGStab:  Solving for Uz:  solution singularity
[INFO] MomentumPredictor: 870.061 [ms]
[INFO] MatrixAssemblyPI: 248.728 [ms]
[INFO] AdjustPhi: 11.28 [ms]
[INFO] ConstrainPressure: 0.021 [ms]
[INFO] MatrixAssemblyPII: 69.591 [ms]
nonePCG:  Solving for p, Initial residual = 1, Final residual = 9.97931e-05, No Iterations 2429
[INFO] SolveP: 64578.1 [ms]
time step continuity errors : sum local = 4.03245e-09, global = 1.34057e-21, cumulative = 1.34057e-21
[INFO] ContinuityError: 24.653 [ms]
[INFO] CorrectBoundary: 0.617 [ms]
[INFO] PISOStep: 65016.4 [ms]
[INFO] MatrixAssemblyPI: 234.399 [ms]
[INFO] AdjustPhi: 10.774 [ms]
[INFO] ConstrainPressure: 0.003 [ms]
[INFO] MatrixAssemblyPII: 68.668 [ms]
nonePCG:  Solving for p, Initial residual = 0.80945, Final residual = 9.98535e-05, No Iterations 2416
[INFO] SolveP: 64546.1 [ms]
time step continuity errors : sum local = 4.92515e-09, global = 2.0635e-22, cumulative = 1.54692e-21
[INFO] ContinuityError: 23.608 [ms]
[INFO] CorrectBoundary: 1.35 [ms]
[INFO] PISOStep: 64975.5 [ms]
[INFO] TimeStep: 131133 [ms]
ExecutionTime = 131.51 s  ClockTime = 132 s

Time = 0.000332

Courant Number mean: 0.0128238 max: 0.426584
[INFO] MatrixAssemblyU: 212.301 [ms]
DILUPBiCGStab:  Solving for Ux, Initial residual = 0.116949, Final residual = 0.00993047, No Iterations 5
DILUPBiCGStab:  Solving for Uy, Initial residual = 0.460127, Final residual = 0.0326302, No Iterations 5
DILUPBiCGStab:  Solving for Uz, Initial residual = 0.988821, Final residual = 0.0765138, No Iterations 5
[INFO] MomentumPredictor: 1662.06 [ms]
[INFO] MatrixAssemblyPI: 242.015 [ms]
[INFO] AdjustPhi: 10.873 [ms]
[INFO] ConstrainPressure: 0.003 [ms]
[INFO] MatrixAssemblyPII: 70.069 [ms]
nonePCG:  Solving for p, Initial residual = 0.881299, Final residual = 9.66348e-05, No Iterations 2380
[INFO] SolveP: 63372.9 [ms]
time step continuity errors : sum local = 9.4103e-09, global = 3.10733e-22, cumulative = 1.85765e-21
[INFO] ContinuityError: 29.849 [ms]
[INFO] CorrectBoundary: 0.638 [ms]
[INFO] PISOStep: 63819.2 [ms]
[INFO] MatrixAssemblyPI: 235.801 [ms]
[INFO] AdjustPhi: 10.826 [ms]
[INFO] ConstrainPressure: 0.002 [ms]
[INFO] MatrixAssemblyPII: 69.999 [ms]
nonePCG:  Solving for p, Initial residual = 0.829027, Final residual = 9.73186e-05, No Iterations 2376
[INFO] SolveP: 63001.7 [ms]
time step continuity errors : sum local = 9.65579e-09, global = 5.23558e-22, cumulative = 2.38121e-21
[INFO] ContinuityError: 26.048 [ms]
[INFO] CorrectBoundary: 0.886 [ms]
[INFO] PISOStep: 63427.4 [ms]
[INFO] TimeStep: 129149 [ms]
ExecutionTime = 259.92 s  ClockTime = 262 s

Time = 0.000498

Courant Number mean: 0.019784 max: 0.492001
[INFO] MatrixAssemblyU: 212.785 [ms]
DILUPBiCGStab:  Solving for Ux, Initial residual = 0.0544453, Final residual = 0.00371398, No Iterations 5
DILUPBiCGStab:  Solving for Uy, Initial residual = 0.226654, Final residual = 0.0167554, No Iterations 5
DILUPBiCGStab:  Solving for Uz, Initial residual = 0.849595, Final residual = 0.054899, No Iterations 5
[INFO] MomentumPredictor: 1652.96 [ms]
[INFO] MatrixAssemblyPI: 241.881 [ms]
[INFO] AdjustPhi: 11.237 [ms]
[INFO] ConstrainPressure: 0.003 [ms]
[INFO] MatrixAssemblyPII: 70.172 [ms]
nonePCG:  Solving for p, Initial residual = 0.914894, Final residual = 9.91341e-05, No Iterations 1153
[INFO] SolveP: 30702.5 [ms]
time step continuity errors : sum local = 1.09573e-08, global = 2.30204e-22, cumulative = 2.61141e-21
[INFO] ContinuityError: 31.52 [ms]
[INFO] CorrectBoundary: 0.539 [ms]
[INFO] PISOStep: 31151 [ms]
[INFO] MatrixAssemblyPI: 234.452 [ms]
[INFO] AdjustPhi: 16.509 [ms]
[INFO] ConstrainPressure: 0.005 [ms]
[INFO] MatrixAssemblyPII: 70.136 [ms]
nonePCG:  Solving for p, Initial residual = 0.883114, Final residual = 9.98643e-05, No Iterations 1150
[INFO] SolveP: 30779.2 [ms]
time step continuity errors : sum local = 1.05559e-08, global = -5.06853e-22, cumulative = 2.10456e-21
[INFO] ContinuityError: 32.3 [ms]
[INFO] CorrectBoundary: 0.823 [ms]
[INFO] PISOStep: 31224.9 [ms]
[INFO] TimeStep: 64268.4 [ms]
ExecutionTime = 323.81 s  ClockTime = 326 s

Time = 0.000664

Courant Number mean: 0.0238679 max: 0.471986
[INFO] MatrixAssemblyU: 214.409 [ms]
DILUPBiCGStab:  Solving for Ux, Initial residual = 0.0385407, Final residual = 0.00298163, No Iterations 5
DILUPBiCGStab:  Solving for Uy, Initial residual = 0.174159, Final residual = 0.0136322, No Iterations 5
DILUPBiCGStab:  Solving for Uz, Initial residual = 0.736383, Final residual = 0.039821, No Iterations 5
[INFO] MomentumPredictor: 1673.87 [ms]
[INFO] MatrixAssemblyPI: 241.729 [ms]
[INFO] AdjustPhi: 11.769 [ms]
[INFO] ConstrainPressure: 0.003 [ms]
[INFO] MatrixAssemblyPII: 70.33 [ms]
nonePCG:  Solving for p, Initial residual = 0.892502, Final residual = 9.88313e-05, No Iterations 1295
[INFO] SolveP: 34634.4 [ms]
time step continuity errors : sum local = 1.20358e-08, global = 1.18198e-21, cumulative = 3.28654e-21
[INFO] ContinuityError: 24.278 [ms]
[INFO] CorrectBoundary: 0.98 [ms]
[INFO] PISOStep: 35065.3 [ms]
[INFO] MatrixAssemblyPI: 235.986 [ms]
[INFO] AdjustPhi: 10.914 [ms]
[INFO] ConstrainPressure: 0.003 [ms]
[INFO] MatrixAssemblyPII: 69.432 [ms]
nonePCG:  Solving for p, Initial residual = 0.832079, Final residual = 9.8772e-05, No Iterations 1154
[INFO] SolveP: 30792 [ms]
time step continuity errors : sum local = 1.1647e-08, global = 3.23953e-22, cumulative = 3.6105e-21
[INFO] ContinuityError: 30.468 [ms]
[INFO] CorrectBoundary: 1.09 [ms]
[INFO] PISOStep: 31233.8 [ms]
[INFO] TimeStep: 68214.1 [ms]
ExecutionTime = 391.63 s  ClockTime = 394 s

Time = 0.00083

Courant Number mean: 0.0273794 max: 0.505306
[INFO] MatrixAssemblyU: 215.257 [ms]
DILUPBiCGStab:  Solving for Ux, Initial residual = 0.0324487, Final residual = 0.00255799, No Iterations 5
DILUPBiCGStab:  Solving for Uy, Initial residual = 0.130085, Final residual = 0.0115348, No Iterations 5
DILUPBiCGStab:  Solving for Uz, Initial residual = 0.685855, Final residual = 0.0351842, No Iterations 5
[INFO] MomentumPredictor: 1656.79 [ms]
[INFO] MatrixAssemblyPI: 240.485 [ms]
[INFO] AdjustPhi: 12.618 [ms]
[INFO] ConstrainPressure: 0.003 [ms]
[INFO] MatrixAssemblyPII: 70.17 [ms]
nonePCG:  Solving for p, Initial residual = 0.912073, Final residual = 9.93894e-05, No Iterations 2377
[INFO] SolveP: 63076 [ms]
time step continuity errors : sum local = 1.11407e-08, global = 5.61091e-22, cumulative = 4.17159e-21
[INFO] ContinuityError: 27.439 [ms]
[INFO] CorrectBoundary: 0.71 [ms]
[INFO] PISOStep: 63512.8 [ms]
[INFO] MatrixAssemblyPI: 235.176 [ms]
[INFO] AdjustPhi: 11.8 [ms]
[INFO] ConstrainPressure: 0.004 [ms]
[INFO] MatrixAssemblyPII: 68.165 [ms]
nonePCG:  Solving for p, Initial residual = 0.873674, Final residual = 9.76793e-05, No Iterations 2376
[INFO] SolveP: 63588.5 [ms]
time step continuity errors : sum local = 1.08079e-08, global = 1.90821e-23, cumulative = 4.19067e-21
[INFO] ContinuityError: 25.036 [ms]
[INFO] CorrectBoundary: 1.256 [ms]
[INFO] PISOStep: 64013.7 [ms]
[INFO] TimeStep: 129425 [ms]
ExecutionTime = 520.33 s  ClockTime = 523 s

Time = 0.000996

Courant Number mean: 0.0301078 max: 0.478345
[INFO] MatrixAssemblyU: 215.402 [ms]
DILUPBiCGStab:  Solving for Ux, Initial residual = 0.0271519, Final residual = 0.00232948, No Iterations 5
DILUPBiCGStab:  Solving for Uy, Initial residual = 0.112279, Final residual = 0.00922794, No Iterations 5
DILUPBiCGStab:  Solving for Uz, Initial residual = 0.59015, Final residual = 0.0274726, No Iterations 5
[INFO] MomentumPredictor: 1681.17 [ms]
[INFO] MatrixAssemblyPI: 241.537 [ms]
[INFO] AdjustPhi: 11.252 [ms]
[INFO] ConstrainPressure: 0.003 [ms]
[INFO] MatrixAssemblyPII: 69.561 [ms]
nonePCG:  Solving for p, Initial residual = 0.890411, Final residual = 9.77532e-05, No Iterations 2372
[INFO] SolveP: 63140.1 [ms]
time step continuity errors : sum local = 1.12338e-08, global = 3.62029e-22, cumulative = 4.5527e-21
[INFO] ContinuityError: 23.783 [ms]
[INFO] CorrectBoundary: 0.911 [ms]
[INFO] PISOStep: 63571.9 [ms]
[INFO] MatrixAssemblyPI: 232.455 [ms]
[INFO] AdjustPhi: 12.459 [ms]
[INFO] ConstrainPressure: 0.003 [ms]
[INFO] MatrixAssemblyPII: 68.696 [ms]
nonePCG:  Solving for p, Initial residual = 0.827117, Final residual = 9.97618e-05, No Iterations 2365
[INFO] SolveP: 62710.7 [ms]
time step continuity errors : sum local = 1.16372e-08, global = 9.11434e-22, cumulative = 5.46413e-21
[INFO] ContinuityError: 25.319 [ms]
[INFO] CorrectBoundary: 0.782 [ms]
[INFO] PISOStep: 63133.5 [ms]
[INFO] TimeStep: 128628 [ms]
ExecutionTime = 648.23 s  ClockTime = 652 s

Time = 0.001162

Courant Number mean: 0.0325679 max: 0.512353
[INFO] MatrixAssemblyU: 216.332 [ms]
DILUPBiCGStab:  Solving for Ux, Initial residual = 0.0246342, Final residual = 0.00216055, No Iterations 5
DILUPBiCGStab:  Solving for Uy, Initial residual = 0.0988504, Final residual = 0.00848363, No Iterations 5
DILUPBiCGStab:  Solving for Uz, Initial residual = 0.564068, Final residual = 0.0243139, No Iterations 5
[INFO] MomentumPredictor: 1650.73 [ms]
[INFO] MatrixAssemblyPI: 241.506 [ms]
[INFO] AdjustPhi: 12.26 [ms]
[INFO] ConstrainPressure: 0.003 [ms]
[INFO] MatrixAssemblyPII: 70.201 [ms]
nonePCG:  Solving for p, Initial residual = 0.907992, Final residual = 9.84351e-05, No Iterations 2100
[INFO] SolveP: 56009.2 [ms]
time step continuity errors : sum local = 1.10226e-08, global = 1.09083e-21, cumulative = 6.55497e-21
[INFO] ContinuityError: 25.728 [ms]
[INFO] CorrectBoundary: 0.775 [ms]
[INFO] PISOStep: 56443.6 [ms]
[INFO] MatrixAssemblyPI: 235.723 [ms]
[INFO] AdjustPhi: 10.67 [ms]
[INFO] ConstrainPressure: 0.003 [ms]
[INFO] MatrixAssemblyPII: 67.357 [ms]
nonePCG:  Solving for p, Initial residual = 0.862812, Final residual = 9.85855e-05, No Iterations 2097
[INFO] SolveP: 55736.9 [ms]
time step continuity errors : sum local = 1.09184e-08, global = 1.70856e-21, cumulative = 8.26353e-21
[INFO] ContinuityError: 41.707 [ms]
[INFO] CorrectBoundary: 0.881 [ms]
[INFO] PISOStep: 56250.7 [ms]
[INFO] TimeStep: 114588 [ms]
ExecutionTime = 762.16 s  ClockTime = 767 s

Time = 0.001328

Courant Number mean: 0.0346367 max: 0.481266
[INFO] MatrixAssemblyU: 236.37 [ms]
DILUPBiCGStab:  Solving for Ux, Initial residual = 0.0222322, Final residual = 0.00202485, No Iterations 5
DILUPBiCGStab:  Solving for Uy, Initial residual = 0.0875479, Final residual = 0.00712976, No Iterations 5
DILUPBiCGStab:  Solving for Uz, Initial residual = 0.521676, Final residual = 0.0219653, No Iterations 5
[INFO] MomentumPredictor: 2011.51 [ms]
[INFO] MatrixAssemblyPI: 241.981 [ms]
[INFO] AdjustPhi: 10.903 [ms]
[INFO] ConstrainPressure: 0.003 [ms]
[INFO] MatrixAssemblyPII: 70.032 [ms]
nonePCG:  Solving for p, Initial residual = 0.886763, Final residual = 9.88944e-05, No Iterations 2312
[INFO] SolveP: 61484.6 [ms]
time step continuity errors : sum local = 1.12759e-08, global = 3.81255e-24, cumulative = 8.26734e-21
[INFO] ContinuityError: 25.637 [ms]
[INFO] CorrectBoundary: 1.185 [ms]
[INFO] PISOStep: 61937 [ms]
[INFO] MatrixAssemblyPI: 238.008 [ms]
[INFO] AdjustPhi: 13.664 [ms]
[INFO] ConstrainPressure: 0.004 [ms]
[INFO] MatrixAssemblyPII: 68.667 [ms]
nonePCG:  Solving for p, Initial residual = 0.820864, Final residual = 9.91406e-05, No Iterations 2305
[INFO] SolveP: 61699.3 [ms]
time step continuity errors : sum local = 1.1458e-08, global = 9.05729e-22, cumulative = 9.17307e-21
[INFO] ContinuityError: 25.898 [ms]
[INFO] CorrectBoundary: 0.503 [ms]
[INFO] PISOStep: 62128 [ms]
[INFO] TimeStep: 126355 [ms]
ExecutionTime = 887.82 s  ClockTime = 893 s

Time = 0.001494

Courant Number mean: 0.036568 max: 0.518553
[INFO] MatrixAssemblyU: 227.594 [ms]
DILUPBiCGStab:  Solving for Ux, Initial residual = 0.0206517, Final residual = 0.00188668, No Iterations 5
DILUPBiCGStab:  Solving for Uy, Initial residual = 0.0824743, Final residual = 0.00672615, No Iterations 5
DILUPBiCGStab:  Solving for Uz, Initial residual = 0.51617, Final residual = 0.0204719, No Iterations 5
[INFO] MomentumPredictor: 1789.08 [ms]
[INFO] MatrixAssemblyPI: 241.311 [ms]
[INFO] AdjustPhi: 11.887 [ms]
[INFO] ConstrainPressure: 0.003 [ms]
[INFO] MatrixAssemblyPII: 70.321 [ms]
nonePCG:  Solving for p, Initial residual = 0.903875, Final residual = 9.82093e-05, No Iterations 2205
[INFO] SolveP: 59000.8 [ms]
time step continuity errors : sum local = 1.09488e-08, global = -2.68329e-22, cumulative = 8.90474e-21
[INFO] ContinuityError: 23.327 [ms]
[INFO] CorrectBoundary: 1.219 [ms]
[INFO] PISOStep: 59431.6 [ms]
[INFO] MatrixAssemblyPI: 235.523 [ms]
[INFO] AdjustPhi: 10.841 [ms]
[INFO] ConstrainPressure: 0.003 [ms]
[INFO] MatrixAssemblyPII: 70.107 [ms]
nonePCG:  Solving for p, Initial residual = 0.854166, Final residual = 9.96884e-05, No Iterations 2202
[INFO] SolveP: 58436.8 [ms]
time step continuity errors : sum local = 1.10053e-08, global = 7.09357e-22, cumulative = 9.6141e-21
[INFO] ContinuityError: 25.377 [ms]
[INFO] CorrectBoundary: 0.797 [ms]
[INFO] PISOStep: 58860.6 [ms]
[INFO] TimeStep: 120381 [ms]
ExecutionTime = 1007.52 s  ClockTime = 1013 s

Time = 0.00166

Courant Number mean: 0.0382481 max: 0.483675
[INFO] MatrixAssemblyU: 213.905 [ms]
DILUPBiCGStab:  Solving for Ux, Initial residual = 0.0194491, Final residual = 0.00179486, No Iterations 5
DILUPBiCGStab:  Solving for Uy, Initial residual = 0.0741162, Final residual = 0.00583268, No Iterations 5
DILUPBiCGStab:  Solving for Uz, Initial residual = 0.49272, Final residual = 0.0192021, No Iterations 5
[INFO] MomentumPredictor: 1655.92 [ms]
[INFO] MatrixAssemblyPI: 241.713 [ms]
[INFO] AdjustPhi: 11.275 [ms]
[INFO] ConstrainPressure: 0.004 [ms]
[INFO] MatrixAssemblyPII: 70.013 [ms]
nonePCG:  Solving for p, Initial residual = 0.885487, Final residual = 9.96377e-05, No Iterations 2283
[INFO] SolveP: 61145.5 [ms]
time step continuity errors : sum local = 1.14708e-08, global = 1.17043e-21, cumulative = 1.07845e-20
[INFO] ContinuityError: 31.76 [ms]
[INFO] CorrectBoundary: 0.796 [ms]
[INFO] PISOStep: 61621.6 [ms]
[INFO] MatrixAssemblyPI: 272.415 [ms]
[INFO] AdjustPhi: 24.742 [ms]
[INFO] ConstrainPressure: 0.004 [ms]
[INFO] MatrixAssemblyPII: 79.161 [ms]
nonePCG:  Solving for p, Initial residual = 0.81649, Final residual = 9.95832e-05, No Iterations 2291
[INFO] SolveP: 61145.3 [ms]
time step continuity errors : sum local = 1.16072e-08, global = -3.3133e-22, cumulative = 1.04532e-20
[INFO] ContinuityError: 25.847 [ms]
[INFO] CorrectBoundary: 1.06 [ms]
[INFO] PISOStep: 61633.1 [ms]
[INFO] TimeStep: 125151 [ms]
ExecutionTime = 1131.95 s  ClockTime = 1139 s

Time = 0.001826

Courant Number mean: 0.0398559 max: 0.525169
[INFO] MatrixAssemblyU: 210.398 [ms]
DILUPBiCGStab:  Solving for Ux, Initial residual = 0.0182779, Final residual = 0.00167238, No Iterations 5
DILUPBiCGStab:  Solving for Uy, Initial residual = 0.0725276, Final residual = 0.00561554, No Iterations 5
DILUPBiCGStab:  Solving for Uz, Initial residual = 0.496077, Final residual = 0.0185737, No Iterations 5
[INFO] MomentumPredictor: 1661.12 [ms]
[INFO] MatrixAssemblyPI: 241.622 [ms]
[INFO] AdjustPhi: 11.309 [ms]
[INFO] ConstrainPressure: 0.003 [ms]
[INFO] MatrixAssemblyPII: 70.228 [ms]
nonePCG:  Solving for p, Initial residual = 0.903992, Final residual = 9.94817e-05, No Iterations 2294
[INFO] SolveP: 60951.9 [ms]
time step continuity errors : sum local = 1.13781e-08, global = 1.91351e-21, cumulative = 1.23667e-20
[INFO] ContinuityError: 24.189 [ms]
[INFO] CorrectBoundary: 0.855 [ms]
[INFO] PISOStep: 61382.4 [ms]
[INFO] MatrixAssemblyPI: 235.921 [ms]
[INFO] AdjustPhi: 11.53 [ms]
[INFO] ConstrainPressure: 0.003 [ms]
[INFO] MatrixAssemblyPII: 70.117 [ms]
nonePCG:  Solving for p, Initial residual = 0.849403, Final residual = 9.74308e-05, No Iterations 2293
[INFO] SolveP: 61095.2 [ms]
time step continuity errors : sum local = 1.10505e-08, global = 4.95246e-22, cumulative = 1.2862e-20
[INFO] ContinuityError: 24.857 [ms]
[INFO] CorrectBoundary: 1.224 [ms]
[INFO] PISOStep: 61520.8 [ms]
[INFO] TimeStep: 124801 [ms]
ExecutionTime = 1256.01 s  ClockTime = 1263 s

Time = 0.001992

Courant Number mean: 0.0412763 max: 0.486776
[INFO] MatrixAssemblyU: 213.27 [ms]
DILUPBiCGStab:  Solving for Ux, Initial residual = 0.0176879, Final residual = 0.00161786, No Iterations 5
DILUPBiCGStab:  Solving for Uy, Initial residual = 0.0659922, Final residual = 0.00494003, No Iterations 5
DILUPBiCGStab:  Solving for Uz, Initial residual = 0.481916, Final residual = 0.0180509, No Iterations 5
[INFO] MomentumPredictor: 1654.7 [ms]
[INFO] MatrixAssemblyPI: 242.198 [ms]
[INFO] AdjustPhi: 11.338 [ms]
[INFO] ConstrainPressure: 0.004 [ms]
[INFO] MatrixAssemblyPII: 69.801 [ms]
nonePCG:  Solving for p, Initial residual = 0.886996, Final residual = 9.75939e-05, No Iterations 2296
[INFO] SolveP: 61395 [ms]
time step continuity errors : sum local = 1.16154e-08, global = 6.29867e-22, cumulative = 1.34918e-20
[INFO] ContinuityError: 24.43 [ms]
[INFO] CorrectBoundary: 0.815 [ms]
[INFO] PISOStep: 61826.1 [ms]
[INFO] MatrixAssemblyPI: 235.507 [ms]
[INFO] AdjustPhi: 10.992 [ms]
[INFO] ConstrainPressure: 0.004 [ms]
[INFO] MatrixAssemblyPII: 67.19 [ms]
nonePCG:  Solving for p, Initial residual = 0.816537, Final residual = 9.86236e-05, No Iterations 2293
[INFO] SolveP: 60835.5 [ms]
time step continuity errors : sum local = 1.1868e-08, global = -8.41637e-23, cumulative = 1.34077e-20
[INFO] ContinuityError: 28.506 [ms]
[INFO] CorrectBoundary: 0.577 [ms]
[INFO] PISOStep: 61269.7 [ms]
[INFO] TimeStep: 124990 [ms]
ExecutionTime = 1380.27 s  ClockTime = 1388 s

Time = 0.002158

Courant Number mean: 0.0426634 max: 0.532772
[INFO] MatrixAssemblyU: 214.651 [ms]
DILUPBiCGStab:  Solving for Ux, Initial residual = 0.0167492, Final residual = 0.0015013, No Iterations 5
DILUPBiCGStab:  Solving for Uy, Initial residual = 0.0660597, Final residual = 0.00484794, No Iterations 5
DILUPBiCGStab:  Solving for Uz, Initial residual = 0.489378, Final residual = 0.0175858, No Iterations 5
[INFO] MomentumPredictor: 1653.5 [ms]
[INFO] MatrixAssemblyPI: 241.667 [ms]
[INFO] AdjustPhi: 11.652 [ms]
[INFO] ConstrainPressure: 0.003 [ms]
[INFO] MatrixAssemblyPII: 69.249 [ms]
nonePCG:  Solving for p, Initial residual = 0.904676, Final residual = 9.76309e-05, No Iterations 2294
[INFO] SolveP: 61434 [ms]
time step continuity errors : sum local = 1.16142e-08, global = -6.99763e-22, cumulative = 1.27079e-20
[INFO] ContinuityError: 23.924 [ms]
[INFO] CorrectBoundary: 0.845 [ms]
[INFO] PISOStep: 61865.4 [ms]
[INFO] MatrixAssemblyPI: 234.565 [ms]
[INFO] AdjustPhi: 24.524 [ms]
[INFO] ConstrainPressure: 0.003 [ms]
[INFO] MatrixAssemblyPII: 87.195 [ms]
nonePCG:  Solving for p, Initial residual = 0.846569, Final residual = 9.99849e-05, No Iterations 2291
[INFO] SolveP: 61107.8 [ms]
time step continuity errors : sum local = 1.18118e-08, global = 1.10913e-21, cumulative = 1.3817e-20
[INFO] ContinuityError: 22.805 [ms]
[INFO] CorrectBoundary: 1.04 [ms]
[INFO] PISOStep: 61565.8 [ms]
[INFO] TimeStep: 125326 [ms]
ExecutionTime = 1504.86 s  ClockTime = 1514 s

Time = 0.002324

Courant Number mean: 0.0438967 max: 0.489838
[INFO] MatrixAssemblyU: 214.617 [ms]
DILUPBiCGStab:  Solving for Ux, Initial residual = 0.0165125, Final residual = 0.00147549, No Iterations 5
DILUPBiCGStab:  Solving for Uy, Initial residual = 0.0608508, Final residual = 0.00430515, No Iterations 5
DILUPBiCGStab:  Solving for Uz, Initial residual = 0.48004, Final residual = 0.017232, No Iterations 5
[INFO] MomentumPredictor: 1659.32 [ms]
[INFO] MatrixAssemblyPI: 241.147 [ms]
[INFO] AdjustPhi: 11.943 [ms]
[INFO] ConstrainPressure: 0.003 [ms]
[INFO] MatrixAssemblyPII: 69.798 [ms]
nonePCG:  Solving for p, Initial residual = 0.889348, Final residual = 9.84284e-05, No Iterations 2294
[INFO] SolveP: 61026.9 [ms]
time step continuity errors : sum local = 1.21973e-08, global = 7.54577e-22, cumulative = 1.45716e-20
[INFO] ContinuityError: 30.774 [ms]
[INFO] CorrectBoundary: 0.682 [ms]
[INFO] PISOStep: 61471.4 [ms]
[INFO] MatrixAssemblyPI: 233.895 [ms]
[INFO] AdjustPhi: 11.693 [ms]
[INFO] ConstrainPressure: 0.003 [ms]
[INFO] MatrixAssemblyPII: 69.008 [ms]
nonePCG:  Solving for p, Initial residual = 0.817737, Final residual = 9.94352e-05, No Iterations 2291
[INFO] SolveP: 61252.6 [ms]
time step continuity errors : sum local = 1.24412e-08, global = 7.69323e-22, cumulative = 1.53409e-20
[INFO] ContinuityError: 31.589 [ms]
[INFO] CorrectBoundary: 0.962 [ms]
[INFO] PISOStep: 61694.8 [ms]
[INFO] TimeStep: 125067 [ms]
ExecutionTime = 1629.21 s  ClockTime = 1639 s

Time = 0.00249

Courant Number mean: 0.0451233 max: 0.54141
[INFO] MatrixAssemblyU: 215.837 [ms]
DILUPBiCGStab:  Solving for Ux, Initial residual = 0.0157582, Final residual = 0.00136409, No Iterations 5
DILUPBiCGStab:  Solving for Uy, Initial residual = 0.0617308, Final residual = 0.00428889, No Iterations 5
DILUPBiCGStab:  Solving for Uz, Initial residual = 0.489438, Final residual = 0.0169816, No Iterations 5
[INFO] MomentumPredictor: 1654.45 [ms]
[INFO] MatrixAssemblyPI: 241.639 [ms]
[INFO] AdjustPhi: 11.513 [ms]
[INFO] ConstrainPressure: 0.003 [ms]
[INFO] MatrixAssemblyPII: 69.261 [ms]
nonePCG:  Solving for p, Initial residual = 0.905511, Final residual = 9.78025e-05, No Iterations 2293
[INFO] SolveP: 61243.4 [ms]
time step continuity errors : sum local = 1.21564e-08, global = -8.39094e-22, cumulative = 1.45018e-20
[INFO] ContinuityError: 23.751 [ms]
[INFO] CorrectBoundary: 1.043 [ms]
[INFO] PISOStep: 61674.5 [ms]
[INFO] MatrixAssemblyPI: 235.653 [ms]
[INFO] AdjustPhi: 10.578 [ms]
[INFO] ConstrainPressure: 0.003 [ms]
[INFO] MatrixAssemblyPII: 69.239 [ms]
nonePCG:  Solving for p, Initial residual = 0.844411, Final residual = 9.95854e-05, No Iterations 2290
[INFO] SolveP: 60779.3 [ms]
time step continuity errors : sum local = 1.23086e-08, global = 6.19148e-22, cumulative = 1.5121e-20
[INFO] ContinuityError: 26.537 [ms]
[INFO] CorrectBoundary: 0.508 [ms]
[INFO] PISOStep: 61209.3 [ms]
[INFO] TimeStep: 124781 [ms]
ExecutionTime = 1753.27 s  ClockTime = 1764 s

Time = 0.002656

Courant Number mean: 0.0462141 max: 0.492949
[INFO] MatrixAssemblyU: 217.507 [ms]
DILUPBiCGStab:  Solving for Ux, Initial residual = 0.0157342, Final residual = 0.0013584, No Iterations 5
DILUPBiCGStab:  Solving for Uy, Initial residual = 0.0576277, Final residual = 0.00384028, No Iterations 5
DILUPBiCGStab:  Solving for Uz, Initial residual = 0.483145, Final residual = 0.0167046, No Iterations 5
[INFO] MomentumPredictor: 1650.44 [ms]
[INFO] MatrixAssemblyPI: 241.107 [ms]
[INFO] AdjustPhi: 11.828 [ms]
[INFO] ConstrainPressure: 0.003 [ms]
[INFO] MatrixAssemblyPII: 70.142 [ms]
nonePCG:  Solving for p, Initial residual = 0.892185, Final residual = 9.94454e-05, No Iterations 2293
[INFO] SolveP: 61717.9 [ms]
time step continuity errors : sum local = 1.28611e-08, global = 5.93617e-22, cumulative = 1.57146e-20
[INFO] ContinuityError: 23.327 [ms]
[INFO] CorrectBoundary: 1.018 [ms]
[INFO] PISOStep: 62152.5 [ms]
[INFO] MatrixAssemblyPI: 234.493 [ms]
[INFO] AdjustPhi: 12.002 [ms]
[INFO] ConstrainPressure: 0.003 [ms]
[INFO] MatrixAssemblyPII: 68.142 [ms]
nonePCG:  Solving for p, Initial residual = 0.819643, Final residual = 9.77499e-05, No Iterations 2291
[INFO] SolveP: 61133.4 [ms]
time step continuity errors : sum local = 1.27478e-08, global = -3.8265e-23, cumulative = 1.56763e-20
[INFO] ContinuityError: 24.667 [ms]
[INFO] CorrectBoundary: 0.977 [ms]
[INFO] PISOStep: 61557.5 [ms]
[INFO] TimeStep: 125605 [ms]
ExecutionTime = 1878.17 s  ClockTime = 1889 s

Time = 0.002822

Courant Number mean: 0.0473173 max: 0.551501
[INFO] MatrixAssemblyU: 215.015 [ms]
DILUPBiCGStab:  Solving for Ux, Initial residual = 0.0151542, Final residual = 0.00125483, No Iterations 5
DILUPBiCGStab:  Solving for Uy, Initial residual = 0.0589402, Final residual = 0.00387083, No Iterations 5
DILUPBiCGStab:  Solving for Uz, Initial residual = 0.493665, Final residual = 0.0166155, No Iterations 5
[INFO] MomentumPredictor: 1657.37 [ms]
[INFO] MatrixAssemblyPI: 241.727 [ms]
[INFO] AdjustPhi: 11.092 [ms]
[INFO] ConstrainPressure: 0.002 [ms]
[INFO] MatrixAssemblyPII: 70.202 [ms]
nonePCG:  Solving for p, Initial residual = 0.906765, Final residual = 9.84267e-05, No Iterations 2293
[INFO] SolveP: 60996.3 [ms]
time step continuity errors : sum local = 1.28216e-08, global = 1.89971e-21, cumulative = 1.7576e-20
[INFO] ContinuityError: 25.006 [ms]
[INFO] CorrectBoundary: 0.948 [ms]
[INFO] PISOStep: 61426.8 [ms]
[INFO] MatrixAssemblyPI: 234.606 [ms]
[INFO] AdjustPhi: 11.605 [ms]
[INFO] ConstrainPressure: 0.003 [ms]
[INFO] MatrixAssemblyPII: 69.366 [ms]
nonePCG:  Solving for p, Initial residual = 0.842711, Final residual = 9.766e-05, No Iterations 2291
[INFO] SolveP: 61186.2 [ms]
time step continuity errors : sum local = 1.26658e-08, global = 9.28946e-22, cumulative = 1.8505e-20
[INFO] ContinuityError: 31.083 [ms]
[INFO] CorrectBoundary: 0.577 [ms]
[INFO] PISOStep: 61622.4 [ms]
[INFO] TimeStep: 124948 [ms]
ExecutionTime = 2002.41 s  ClockTime = 2014 s

Time = 0.002988

Courant Number mean: 0.0482956 max: 0.496275
[INFO] MatrixAssemblyU: 211.505 [ms]
DILUPBiCGStab:  Solving for Ux, Initial residual = 0.0152638, Final residual = 0.00126128, No Iterations 5
DILUPBiCGStab:  Solving for Uy, Initial residual = 0.0557981, Final residual = 0.00349428, No Iterations 5
DILUPBiCGStab:  Solving for Uz, Initial residual = 0.48965, Final residual = 0.0163918, No Iterations 5
[INFO] MomentumPredictor: 1659.84 [ms]
[INFO] MatrixAssemblyPI: 241.685 [ms]
[INFO] AdjustPhi: 11.335 [ms]
[INFO] ConstrainPressure: 0.003 [ms]
[INFO] MatrixAssemblyPII: 70.268 [ms]
nonePCG:  Solving for p, Initial residual = 0.896591, Final residual = 9.88137e-05, No Iterations 2289
[INFO] SolveP: 61128.4 [ms]
time step continuity errors : sum local = 1.33831e-08, global = 1.45979e-21, cumulative = 1.99648e-20
[INFO] ContinuityError: 24.183 [ms]
[INFO] CorrectBoundary: 0.882 [ms]
[INFO] PISOStep: 61558.8 [ms]
[INFO] MatrixAssemblyPI: 234.898 [ms]
[INFO] AdjustPhi: 11.505 [ms]
[INFO] ConstrainPressure: 0.003 [ms]
[INFO] MatrixAssemblyPII: 70.03 [ms]
nonePCG:  Solving for p, Initial residual = 0.822747, Final residual = 9.80632e-05, No Iterations 2289
[INFO] SolveP: 60774.4 [ms]
time step continuity errors : sum local = 1.33783e-08, global = 1.99849e-22, cumulative = 2.01646e-20
[INFO] ContinuityError: 30.715 [ms]
[INFO] CorrectBoundary: 0.71 [ms]
[INFO] PISOStep: 61239.6 [ms]
[INFO] TimeStep: 124696 [ms]
ExecutionTime = 2126.37 s  ClockTime = 2139 s

Time = 0.003154

Courant Number mean: 0.049302 max: 0.563027
[INFO] MatrixAssemblyU: 223.343 [ms]
DILUPBiCGStab:  Solving for Ux, Initial residual = 0.0148571, Final residual = 0.00116847, No Iterations 5
DILUPBiCGStab:  Solving for Uy, Initial residual = 0.0573672, Final residual = 0.00355362, No Iterations 5
DILUPBiCGStab:  Solving for Uz, Initial residual = 0.500616, Final residual = 0.0163874, No Iterations 5
[INFO] MomentumPredictor: 1716.72 [ms]
[INFO] MatrixAssemblyPI: 241.527 [ms]
[INFO] AdjustPhi: 11.414 [ms]
[INFO] ConstrainPressure: 0.003 [ms]
[INFO] MatrixAssemblyPII: 69.512 [ms]
nonePCG:  Solving for p, Initial residual = 0.909353, Final residual = 9.84201e-05, No Iterations 2294
[INFO] SolveP: 61130.3 [ms]
time step continuity errors : sum local = 1.34972e-08, global = -1.88952e-22, cumulative = 1.99757e-20
[INFO] ContinuityError: 30.249 [ms]
[INFO] CorrectBoundary: 0.839 [ms]
[INFO] PISOStep: 61601.8 [ms]
[INFO] MatrixAssemblyPI: 250.258 [ms]
[INFO] AdjustPhi: 22.119 [ms]
[INFO] ConstrainPressure: 0.003 [ms]
[INFO] MatrixAssemblyPII: 73.486 [ms]
nonePCG:  Solving for p, Initial residual = 0.842365, Final residual = 9.7253e-05, No Iterations 2292
[INFO] SolveP: 61185.3 [ms]
time step continuity errors : sum local = 1.32927e-08, global = -3.23932e-22, cumulative = 1.96517e-20
[INFO] ContinuityError: 25.017 [ms]
[INFO] CorrectBoundary: 0.944 [ms]
[INFO] PISOStep: 61643.1 [ms]
[INFO] TimeStep: 125216 [ms]
ExecutionTime = 2250.84 s  ClockTime = 2264 s

Time = 0.00332

Courant Number mean: 0.0501879 max: 0.499873
[INFO] MatrixAssemblyU: 217.966 [ms]
DILUPBiCGStab:  Solving for Ux, Initial residual = 0.0150644, Final residual = 0.0011808, No Iterations 5
DILUPBiCGStab:  Solving for Uy, Initial residual = 0.0549999, Final residual = 0.00323676, No Iterations 5
DILUPBiCGStab:  Solving for Uz, Initial residual = 0.498525, Final residual = 0.0162463, No Iterations 5
[INFO] MomentumPredictor: 1654.78 [ms]
[INFO] MatrixAssemblyPI: 241.531 [ms]
[INFO] AdjustPhi: 11.466 [ms]
[INFO] ConstrainPressure: 0.003 [ms]
[INFO] MatrixAssemblyPII: 70.203 [ms]
nonePCG:  Solving for p, Initial residual = 0.902028, Final residual = 9.95483e-05, No Iterations 2295
[INFO] SolveP: 61047.4 [ms]
time step continuity errors : sum local = 1.41825e-08, global = 1.75704e-21, cumulative = 2.14088e-20
[INFO] ContinuityError: 32.173 [ms]
[INFO] CorrectBoundary: 0.713 [ms]
[INFO] PISOStep: 61527.7 [ms]
[INFO] MatrixAssemblyPI: 265.027 [ms]
[INFO] AdjustPhi: 19.307 [ms]
[INFO] ConstrainPressure: 0.003 [ms]
[INFO] MatrixAssemblyPII: 79.473 [ms]
nonePCG:  Solving for p, Initial residual = 0.826956, Final residual = 9.97691e-05, No Iterations 2292
[INFO] SolveP: 61049.3 [ms]
time step continuity errors : sum local = 1.43044e-08, global = 1.12638e-21, cumulative = 2.25352e-20
[INFO] ContinuityError: 25.021 [ms]
[INFO] CorrectBoundary: 0.512 [ms]
[INFO] PISOStep: 61523.2 [ms]
[INFO] TimeStep: 124950 [ms]
ExecutionTime = 2375.04 s  ClockTime = 2389 s

End

Finalising parallel run
