/*---------------------------------------------------------------------------*\
| =========                 |                                                 |
| \\      /  F ield         | OpenFOAM: The Open Source CFD Toolbox           |
|  \\    /   O peration     | Version:  2306                                  |
|   \\  /    A nd           | Website:  www.openfoam.com                      |
|    \\/     M anipulation  |                                                 |
\*---------------------------------------------------------------------------*/
Build  : a6e826bd55-20230630 OPENFOAM=2306 version=v2306
Arch   : "LSB;label=32;scalar=64"
Exec   : icoFoam -parallel -case /tmp/lidDrivenCavity/workspace/0419437dd031e51e80c656d740c803a9/case
Date   : Dec 16 2023
Time   : 17:12:05
Host   : nla-gpu2.ianm.kit.edu
PID    : 180415
I/O    : uncollated
Case   : /tmp/lidDrivenCavity/workspace/0419437dd031e51e80c656d740c803a9/case
nProcs : 32
Hosts  :
(
    (nla-gpu2.ianm.kit.edu 32)
)
Pstream initialized with:
    floatTransfer      : false
    nProcsSimpleSum    : 0
    nonBlockingExchange: 0 (tuning: 0)
    exchange algorithm : -1
    commsType          : nonBlocking
    polling iterations : 0
trapFpe: Floating point exception trapping enabled (FOAM_SIGFPE).
fileModificationChecking : Monitoring run-time modified files using timeStampMaster (fileModificationSkew 5, maxFileModificationPolls 20)
allowSystemOperations : Allowing user-supplied system call operations

// * * * * * * * * * * * * * * * * * * * * * * * * * * * * * * * * * * * * * //
Create time

--> FOAM Warning : 
    From void* Foam::dlLibraryTable::openLibrary(const Foam::fileName&, bool)
    in file db/dynamicLibrary/dlLibraryTable/dlLibraryTable.C at line 188
    Could not load "libpetscFoam.so"
libpetscFoam.so: cannot open shared object file: No such file or directory
Create mesh for time = 0


PISO: Operating solver in PISO mode

Reading transportProperties

Reading field p

Reading field U

Reading/calculating face flux field phi


Starting time loop

Time = 0.000166

Courant Number mean: 8.14055e-18 max: 3.11001e-14
[INFO] MatrixAssemblyU: 233.661 [ms]
DILUPBiCGStab:  Solving for Ux, Initial residual = 1, Final residual = 0.0163135, No Iterations 5
DILUPBiCGStab:  Solving for Uy:  solution singularity
DILUPBiCGStab:  Solving for Uz:  solution singularity
[INFO] MomentumPredictor: 884.759 [ms]
[INFO] MatrixAssemblyPI: 247.73 [ms]
[INFO] AdjustPhi: 12.63 [ms]
[INFO] ConstrainPressure: 0.017 [ms]
[INFO] MatrixAssemblyPII: 66.121 [ms]
[OGL LOG][lduLduBase.H:119] Initialising OGL
	OGL commit:  1421b02+
	Branch: feat/on_device_permute 
	Build type: Release
	Ginkgo version: 1.7.0 ( develop)
	Ginkgo commit: sparse-communicator
	MPI is GPU aware: 1
	Forces host buffer based communication: 0
	CPU ranks per GPU: 1
	Matrix format: Coo
	End OGL_INFO
[OGL LOG][Proc: 0]: global_index_init: 11.099 [ms]
[OGL LOG][Proc: 0]p_local_cols: call_init: 0.019 [ms]
[OGL LOG][Proc: 0]p_local_rows: call_init: 0.009 [ms]
[OGL LOG][Proc: 0]p_local_ldu_map: call_init: 0.006 [ms]
[OGL LOG][Proc: 0]p_local_coeffs: call_init: 0.223 [ms]
[OGL LOG][Proc: 0]p_non_local_cols: call_init: 0.005 [ms]
[OGL LOG][Proc: 0]p_non_local_rows: call_init: 0.003 [ms]
[OGL LOG][Proc: 0]p_non_local_ldu_map: call_init: 0.002 [ms]
[OGL LOG][Proc: 0]p_non_local_coeffs: call_init: 0.003 [ms]
[OGL LOG][Proc: 0]p: init_local_sparsity_pattern: 332.063 [ms]
[OGL LOG][Proc: 0]p: init_non_local_sparsity_pattern: 2.822 [ms]
[OGL LOG][Proc: 0]p: update_local_matrix_data: 94.062 [ms]
[OGL LOG][Proc: 0]p: update_non_local_matrix_data: 0.125 [ms]
[OGL LOG][Proc: 0]device_partition: call_init: 0.125 [ms]
[OGL LOG][Proc: 0]p_matrix: call_init: 108.227 [ms]
[OGL LOG][Proc: 0]p_rhs: call_init: 20.4 [ms]
[OGL LOG][Proc: 0]p_solution: call_init: 5.729 [ms]
[OGL LOG][Preconditioner.H:121] Generate preconditioner BJ MaxBlockSize 1
[OGL LOG][Proc: 0]p: init_precond: 5.578 [ms]
[OGL LOG][StoppingCriterion.H:237] Creating stopping criterion with minIter 0 frequency 1
[OGL LOG][Proc: 0]p: generate_solver: 0.019 [ms]
[OGL LOG][Proc: 0]p: solve: 8661.78 [ms]
[OGL LOG][Proc: 0]p: copy_x_back: 5.789 [ms]
[OGL LOG][lduLduBase.H:330] 
Statistics:
	Time per iteration: 3582 [mu s]
	Time per residual norm calculation: 1465.000000 [mu s]
	Time per iteration and DOF: 0.132667 [ns]
	Retrieve results bandwidth 1.166000 [GByte/s]
[OGL LOG][Proc: 0]p: solve_multi_gpu: 8813.55 [ms]
BJhipGKOCG:  Solving for p, Initial residual = 1, Final residual = 9.76336e-05, No Iterations 2418
[INFO] SolveP: 9610.32 [ms]
time step continuity errors : sum local = 3.94521e-09, global = 1.29906e-21, cumulative = 1.29906e-21
[INFO] ContinuityError: 26.482 [ms]
[INFO] CorrectBoundary: 1.211 [ms]
[INFO] PISOStep: 10050 [ms]
[INFO] MatrixAssemblyPI: 233.314 [ms]
[INFO] AdjustPhi: 13.791 [ms]
[INFO] ConstrainPressure: 0.003 [ms]
[INFO] MatrixAssemblyPII: 70.009 [ms]
[OGL LOG][Proc: 0]: global_index_init: 0.044 [ms]
[OGL LOG][Proc: 0]p_local_coeffs: call_update: 0 [ms]
[OGL LOG][Proc: 0]p_non_local_coeffs: call_update: 0 [ms]
[OGL LOG][Proc: 0]p: update_local_matrix_data: 36.008 [ms]
[OGL LOG][Proc: 0]p: update_non_local_matrix_data: 0.16 [ms]
[OGL LOG][Proc: 0]p_matrix: call_update: 1.335 [ms]
[OGL LOG][Proc: 0]p_rhs: call_update: 3.25 [ms]
[OGL LOG][Preconditioner.H:121] Generate preconditioner BJ MaxBlockSize 1
[OGL LOG][Proc: 0]p: init_precond: 0.958 [ms]
[OGL LOG][StoppingCriterion.H:237] Creating stopping criterion with minIter 1450 frequency 21
[OGL LOG][Proc: 0]p: generate_solver: 0.003 [ms]
[OGL LOG][Proc: 0]p: solve: 5934.38 [ms]
[OGL LOG][Proc: 0]p: copy_x_back: 6.632 [ms]
[OGL LOG][lduLduBase.H:330] 
Statistics:
	Time per iteration: 2456 [mu s]
	Time per residual norm calculation: 429.000000 [mu s]
	Time per iteration and DOF: 0.090963 [ns]
	Retrieve results bandwidth 1.017000 [GByte/s]
[OGL LOG][Proc: 0]p: solve_multi_gpu: 5959.91 [ms]
BJhipGKOCG:  Solving for p, Initial residual = 0.80945, Final residual = 7.80361e-05, No Iterations 2416
[INFO] SolveP: 6005.12 [ms]
time step continuity errors : sum local = 3.84905e-09, global = 6.01885e-22, cumulative = 1.90094e-21
[INFO] ContinuityError: 27.111 [ms]
[INFO] CorrectBoundary: 0.609 [ms]
[INFO] PISOStep: 6431.25 [ms]
[INFO] TimeStep: 17627.2 [ms]
ExecutionTime = 20.58 s  ClockTime = 19 s

Time = 0.000332

Courant Number mean: 0.0128238 max: 0.426584
[INFO] MatrixAssemblyU: 214.368 [ms]
DILUPBiCGStab:  Solving for Ux, Initial residual = 0.116949, Final residual = 0.00993041, No Iterations 5
DILUPBiCGStab:  Solving for Uy, Initial residual = 0.460127, Final residual = 0.0326302, No Iterations 5
DILUPBiCGStab:  Solving for Uz, Initial residual = 0.988822, Final residual = 0.0765047, No Iterations 5
[INFO] MomentumPredictor: 1679.34 [ms]
[INFO] MatrixAssemblyPI: 241.901 [ms]
[INFO] AdjustPhi: 11.994 [ms]
[INFO] ConstrainPressure: 0.003 [ms]
[INFO] MatrixAssemblyPII: 66.652 [ms]
[OGL LOG][Proc: 0]: global_index_init: 0.048 [ms]
[OGL LOG][Proc: 0]p_local_coeffs: call_update: 0 [ms]
[OGL LOG][Proc: 0]p_non_local_coeffs: call_update: 0 [ms]
[OGL LOG][Proc: 0]p: update_local_matrix_data: 39.3 [ms]
[OGL LOG][Proc: 0]p: update_non_local_matrix_data: 0.17 [ms]
[OGL LOG][Proc: 0]p_matrix: call_update: 1.178 [ms]
[OGL LOG][Proc: 0]p_rhs: call_update: 4.356 [ms]
[OGL LOG][Preconditioner.H:121] Generate preconditioner BJ MaxBlockSize 1
[OGL LOG][Proc: 0]p: init_precond: 1.031 [ms]
[OGL LOG][StoppingCriterion.H:237] Creating stopping criterion with minIter 1449 frequency 13
[OGL LOG][Proc: 0]p: generate_solver: 0.002 [ms]
[OGL LOG][Proc: 0]p: solve: 5683.76 [ms]
[OGL LOG][Proc: 0]p: copy_x_back: 3.866 [ms]
[OGL LOG][lduLduBase.H:330] 
Statistics:
	Time per iteration: 2388 [mu s]
	Time per residual norm calculation: 451.000000 [mu s]
	Time per iteration and DOF: 0.088444 [ns]
	Retrieve results bandwidth 1.745000 [GByte/s]
[OGL LOG][Proc: 0]p: solve_multi_gpu: 5708.73 [ms]
BJhipGKOCG:  Solving for p, Initial residual = 0.881301, Final residual = 7.89886e-05, No Iterations 2380
[INFO] SolveP: 5757.2 [ms]
time step continuity errors : sum local = 7.69197e-09, global = 2.12518e-22, cumulative = 2.11346e-21
[INFO] ContinuityError: 28.11 [ms]
[INFO] CorrectBoundary: 2.172 [ms]
[INFO] PISOStep: 6192.07 [ms]
[INFO] MatrixAssemblyPI: 233.034 [ms]
[INFO] AdjustPhi: 13.53 [ms]
[INFO] ConstrainPressure: 0.003 [ms]
[INFO] MatrixAssemblyPII: 68.934 [ms]
[OGL LOG][Proc: 0]: global_index_init: 0.033 [ms]
[OGL LOG][Proc: 0]p_local_coeffs: call_update: 0 [ms]
[OGL LOG][Proc: 0]p_non_local_coeffs: call_update: 0 [ms]
[OGL LOG][Proc: 0]p: update_local_matrix_data: 46.041 [ms]
[OGL LOG][Proc: 0]p: update_non_local_matrix_data: 0.154 [ms]
[OGL LOG][Proc: 0]p_matrix: call_update: 1.653 [ms]
[OGL LOG][Proc: 0]p_rhs: call_update: 2.711 [ms]
[OGL LOG][Preconditioner.H:121] Generate preconditioner BJ MaxBlockSize 1
[OGL LOG][Proc: 0]p: init_precond: 1.123 [ms]
[OGL LOG][StoppingCriterion.H:237] Creating stopping criterion with minIter 1428 frequency 13
[OGL LOG][Proc: 0]p: generate_solver: 0.003 [ms]
[OGL LOG][Proc: 0]p: solve: 5594.88 [ms]
[OGL LOG][Proc: 0]p: copy_x_back: 5.519 [ms]
[OGL LOG][lduLduBase.H:330] 
Statistics:
	Time per iteration: 2350 [mu s]
	Time per residual norm calculation: 429.000000 [mu s]
	Time per iteration and DOF: 0.087037 [ns]
	Retrieve results bandwidth 1.223000 [GByte/s]
[OGL LOG][Proc: 0]p: solve_multi_gpu: 5623.03 [ms]
BJhipGKOCG:  Solving for p, Initial residual = 0.829028, Final residual = 7.28456e-05, No Iterations 2380
[INFO] SolveP: 5678.8 [ms]
time step continuity errors : sum local = 7.22769e-09, global = 6.0237e-23, cumulative = 2.1737e-21
[INFO] ContinuityError: 26.977 [ms]
[INFO] CorrectBoundary: 1.053 [ms]
[INFO] PISOStep: 6104.48 [ms]
[INFO] TimeStep: 14217.6 [ms]
ExecutionTime = 36.63 s  ClockTime = 33 s

Time = 0.000498

Courant Number mean: 0.019784 max: 0.491999
[INFO] MatrixAssemblyU: 216.49 [ms]
DILUPBiCGStab:  Solving for Ux, Initial residual = 0.0544447, Final residual = 0.00371392, No Iterations 5
DILUPBiCGStab:  Solving for Uy, Initial residual = 0.226654, Final residual = 0.0167553, No Iterations 5
DILUPBiCGStab:  Solving for Uz, Initial residual = 0.849334, Final residual = 0.0548573, No Iterations 5
[INFO] MomentumPredictor: 1685.37 [ms]
[INFO] MatrixAssemblyPI: 242.091 [ms]
[INFO] AdjustPhi: 11.453 [ms]
[INFO] ConstrainPressure: 0.003 [ms]
[INFO] MatrixAssemblyPII: 63.645 [ms]
[OGL LOG][Proc: 0]: global_index_init: 0.045 [ms]
[OGL LOG][Proc: 0]p_local_coeffs: call_update: 0 [ms]
[OGL LOG][Proc: 0]p_non_local_coeffs: call_update: 0 [ms]
[OGL LOG][Proc: 0]p: update_local_matrix_data: 41.12 [ms]
[OGL LOG][Proc: 0]p: update_non_local_matrix_data: 0.151 [ms]
[OGL LOG][Proc: 0]p_matrix: call_update: 1.832 [ms]
[OGL LOG][Proc: 0]p_rhs: call_update: 2.737 [ms]
[OGL LOG][Preconditioner.H:121] Generate preconditioner BJ MaxBlockSize 1
[OGL LOG][Proc: 0]p: init_precond: 1.087 [ms]
[OGL LOG][StoppingCriterion.H:237] Creating stopping criterion with minIter 1428 frequency 13
[OGL LOG][Proc: 0]p: generate_solver: 0.003 [ms]
[OGL LOG][Proc: 0]p: solve: 3302.1 [ms]
[OGL LOG][Proc: 0]p: copy_x_back: 5.391 [ms]
[OGL LOG][lduLduBase.H:330] 
Statistics:
	Time per iteration: 2307 [mu s]
	Time per residual norm calculation: 453.000000 [mu s]
	Time per iteration and DOF: 0.085444 [ns]
	Retrieve results bandwidth 1.252000 [GByte/s]
[OGL LOG][Proc: 0]p: solve_multi_gpu: 3324.02 [ms]
BJhipGKOCG:  Solving for p, Initial residual = 0.914888, Final residual = 6.76302e-05, No Iterations 1431
[INFO] SolveP: 3375.07 [ms]
time step continuity errors : sum local = 7.61964e-09, global = 3.5248e-22, cumulative = 2.52618e-21
[INFO] ContinuityError: 24.708 [ms]
[INFO] CorrectBoundary: 0.746 [ms]
[INFO] PISOStep: 3807.4 [ms]
[INFO] MatrixAssemblyPI: 233.618 [ms]
[INFO] AdjustPhi: 12.533 [ms]
[INFO] ConstrainPressure: 0.003 [ms]
[INFO] MatrixAssemblyPII: 67.906 [ms]
[OGL LOG][Proc: 0]: global_index_init: 0.067 [ms]
[OGL LOG][Proc: 0]p_local_coeffs: call_update: 0 [ms]
[OGL LOG][Proc: 0]p_non_local_coeffs: call_update: 0 [ms]
[OGL LOG][Proc: 0]p: update_local_matrix_data: 52.57 [ms]
[OGL LOG][Proc: 0]p: update_non_local_matrix_data: 0.14 [ms]
[OGL LOG][Proc: 0]p_matrix: call_update: 1.819 [ms]
[OGL LOG][Proc: 0]p_rhs: call_update: 5.358 [ms]
[OGL LOG][Preconditioner.H:121] Generate preconditioner BJ MaxBlockSize 1
[OGL LOG][Proc: 0]p: init_precond: 1.14 [ms]
[OGL LOG][StoppingCriterion.H:237] Creating stopping criterion with minIter 858 frequency 10
[OGL LOG][Proc: 0]p: generate_solver: 0.003 [ms]
[OGL LOG][Proc: 0]p: solve: 2697.54 [ms]
[OGL LOG][Proc: 0]p: copy_x_back: 5.992 [ms]
[OGL LOG][lduLduBase.H:330] 
Statistics:
	Time per iteration: 2343 [mu s]
	Time per residual norm calculation: 439.000000 [mu s]
	Time per iteration and DOF: 0.086778 [ns]
	Retrieve results bandwidth 1.126000 [GByte/s]
[OGL LOG][Proc: 0]p: solve_multi_gpu: 2715.67 [ms]
BJhipGKOCG:  Solving for p, Initial residual = 0.883106, Final residual = 8.85366e-05, No Iterations 1151
[INFO] SolveP: 2777.21 [ms]
time step continuity errors : sum local = 9.37134e-09, global = 1.0125e-21, cumulative = 3.53868e-21
[INFO] ContinuityError: 25.202 [ms]
[INFO] CorrectBoundary: 1.156 [ms]
[INFO] PISOStep: 3200.73 [ms]
[INFO] TimeStep: 8937.27 [ms]
ExecutionTime = 46.57 s  ClockTime = 42 s

Time = 0.000664

Courant Number mean: 0.0238679 max: 0.471986
[INFO] MatrixAssemblyU: 216.167 [ms]
DILUPBiCGStab:  Solving for Ux, Initial residual = 0.03854, Final residual = 0.00298163, No Iterations 5
DILUPBiCGStab:  Solving for Uy, Initial residual = 0.17416, Final residual = 0.013632, No Iterations 5
DILUPBiCGStab:  Solving for Uz, Initial residual = 0.735813, Final residual = 0.0395046, No Iterations 5
[INFO] MomentumPredictor: 1661.95 [ms]
[INFO] MatrixAssemblyPI: 241.366 [ms]
[INFO] AdjustPhi: 11.635 [ms]
[INFO] ConstrainPressure: 0.003 [ms]
[INFO] MatrixAssemblyPII: 70.141 [ms]
[OGL LOG][Proc: 0]: global_index_init: 0.114 [ms]
[OGL LOG][Proc: 0]p_local_coeffs: call_update: 0 [ms]
[OGL LOG][Proc: 0]p_non_local_coeffs: call_update: 0 [ms]
[OGL LOG][Proc: 0]p: update_local_matrix_data: 38.431 [ms]
[OGL LOG][Proc: 0]p: update_non_local_matrix_data: 0.143 [ms]
[OGL LOG][Proc: 0]p_matrix: call_update: 1.688 [ms]
[OGL LOG][Proc: 0]p_rhs: call_update: 7.685 [ms]
[OGL LOG][Preconditioner.H:121] Generate preconditioner BJ MaxBlockSize 1
[OGL LOG][Proc: 0]p: init_precond: 1.118 [ms]
[OGL LOG][StoppingCriterion.H:237] Creating stopping criterion with minIter 690 frequency 9
[OGL LOG][Proc: 0]p: generate_solver: 0.002 [ms]
[OGL LOG][Proc: 0]p: solve: 2737.71 [ms]
[OGL LOG][Proc: 0]p: copy_x_back: 5.322 [ms]
[OGL LOG][lduLduBase.H:330] 
Statistics:
	Time per iteration: 2374 [mu s]
	Time per residual norm calculation: 429.000000 [mu s]
	Time per iteration and DOF: 0.087926 [ns]
	Retrieve results bandwidth 1.268000 [GByte/s]
[OGL LOG][Proc: 0]p: solve_multi_gpu: 2763.13 [ms]
BJhipGKOCG:  Solving for p, Initial residual = 0.892483, Final residual = 9.22521e-05, No Iterations 1153
[INFO] SolveP: 2810.54 [ms]
time step continuity errors : sum local = 1.12286e-08, global = 6.10146e-22, cumulative = 4.14883e-21
[INFO] ContinuityError: 24.25 [ms]
[INFO] CorrectBoundary: 0.661 [ms]
[INFO] PISOStep: 3242.3 [ms]
[INFO] MatrixAssemblyPI: 234.833 [ms]
[INFO] AdjustPhi: 11.038 [ms]
[INFO] ConstrainPressure: 0.003 [ms]
[INFO] MatrixAssemblyPII: 70.085 [ms]
[OGL LOG][Proc: 0]: global_index_init: 0.068 [ms]
[OGL LOG][Proc: 0]p_local_coeffs: call_update: 0 [ms]
[OGL LOG][Proc: 0]p_non_local_coeffs: call_update: 0 [ms]
[OGL LOG][Proc: 0]p: update_local_matrix_data: 45.205 [ms]
[OGL LOG][Proc: 0]p: update_non_local_matrix_data: 0.151 [ms]
[OGL LOG][Proc: 0]p_matrix: call_update: 1.861 [ms]
[OGL LOG][Proc: 0]p_rhs: call_update: 4.577 [ms]
[OGL LOG][Preconditioner.H:121] Generate preconditioner BJ MaxBlockSize 1
[OGL LOG][Proc: 0]p: init_precond: 1.15 [ms]
[OGL LOG][StoppingCriterion.H:237] Creating stopping criterion with minIter 691 frequency 9
[OGL LOG][Proc: 0]p: generate_solver: 0.002 [ms]
[OGL LOG][Proc: 0]p: solve: 2671.86 [ms]
[OGL LOG][Proc: 0]p: copy_x_back: 5.473 [ms]
[OGL LOG][lduLduBase.H:330] 
Statistics:
	Time per iteration: 2335 [mu s]
	Time per residual norm calculation: 447.000000 [mu s]
	Time per iteration and DOF: 0.086481 [ns]
	Retrieve results bandwidth 1.233000 [GByte/s]
[OGL LOG][Proc: 0]p: solve_multi_gpu: 2689.39 [ms]
BJhipGKOCG:  Solving for p, Initial residual = 0.832043, Final residual = 9.26e-05, No Iterations 1144
[INFO] SolveP: 2743.59 [ms]
time step continuity errors : sum local = 1.09168e-08, global = 1.13886e-21, cumulative = 5.28768e-21
[INFO] ContinuityError: 25.24 [ms]
[INFO] CorrectBoundary: 0.898 [ms]
[INFO] PISOStep: 3167.04 [ms]
[INFO] TimeStep: 8314.12 [ms]
ExecutionTime = 55.79 s  ClockTime = 50 s

Time = 0.00083

Courant Number mean: 0.0273793 max: 0.505304
[INFO] MatrixAssemblyU: 213.22 [ms]
DILUPBiCGStab:  Solving for Ux, Initial residual = 0.0324433, Final residual = 0.00255739, No Iterations 5
DILUPBiCGStab:  Solving for Uy, Initial residual = 0.130091, Final residual = 0.0115371, No Iterations 5
DILUPBiCGStab:  Solving for Uz, Initial residual = 0.685642, Final residual = 0.0351927, No Iterations 5
[INFO] MomentumPredictor: 1689.75 [ms]
[INFO] MatrixAssemblyPI: 242.333 [ms]
[INFO] AdjustPhi: 10.476 [ms]
[INFO] ConstrainPressure: 0.003 [ms]
[INFO] MatrixAssemblyPII: 70.206 [ms]
[OGL LOG][Proc: 0]: global_index_init: 0.085 [ms]
[OGL LOG][Proc: 0]p_local_coeffs: call_update: 0 [ms]
[OGL LOG][Proc: 0]p_non_local_coeffs: call_update: 0 [ms]
[OGL LOG][Proc: 0]p: update_local_matrix_data: 42.954 [ms]
[OGL LOG][Proc: 0]p: update_non_local_matrix_data: 0.132 [ms]
[OGL LOG][Proc: 0]p_matrix: call_update: 2.142 [ms]
[OGL LOG][Proc: 0]p_rhs: call_update: 3.533 [ms]
[OGL LOG][Preconditioner.H:121] Generate preconditioner BJ MaxBlockSize 1
[OGL LOG][Proc: 0]p: init_precond: 1.164 [ms]
[OGL LOG][StoppingCriterion.H:237] Creating stopping criterion with minIter 686 frequency 9
[OGL LOG][Proc: 0]p: generate_solver: 0.003 [ms]
[OGL LOG][Proc: 0]p: solve: 5496.53 [ms]
[OGL LOG][Proc: 0]p: copy_x_back: 4.909 [ms]
[OGL LOG][lduLduBase.H:330] 
Statistics:
	Time per iteration: 2321 [mu s]
	Time per residual norm calculation: 442.000000 [mu s]
	Time per iteration and DOF: 0.085963 [ns]
	Retrieve results bandwidth 1.375000 [GByte/s]
[OGL LOG][Proc: 0]p: solve_multi_gpu: 5514.24 [ms]
BJhipGKOCG:  Solving for p, Initial residual = 0.912075, Final residual = 9.94406e-05, No Iterations 2368
[INFO] SolveP: 5566.02 [ms]
time step continuity errors : sum local = 1.11463e-08, global = 8.26794e-22, cumulative = 6.11448e-21
[INFO] ContinuityError: 27.708 [ms]
[INFO] CorrectBoundary: 1.046 [ms]
[INFO] PISOStep: 5997 [ms]
[INFO] MatrixAssemblyPI: 235.157 [ms]
[INFO] AdjustPhi: 12.085 [ms]
[INFO] ConstrainPressure: 0.003 [ms]
[INFO] MatrixAssemblyPII: 70.046 [ms]
[OGL LOG][Proc: 0]: global_index_init: 0.065 [ms]
[OGL LOG][Proc: 0]p_local_coeffs: call_update: 0 [ms]
[OGL LOG][Proc: 0]p_non_local_coeffs: call_update: 0 [ms]
[OGL LOG][Proc: 0]p: update_local_matrix_data: 40.277 [ms]
[OGL LOG][Proc: 0]p: update_non_local_matrix_data: 0.16 [ms]
[OGL LOG][Proc: 0]p_matrix: call_update: 1.826 [ms]
[OGL LOG][Proc: 0]p_rhs: call_update: 4.839 [ms]
[OGL LOG][Preconditioner.H:121] Generate preconditioner BJ MaxBlockSize 1
[OGL LOG][Proc: 0]p: init_precond: 1.043 [ms]
[OGL LOG][StoppingCriterion.H:237] Creating stopping criterion with minIter 1420 frequency 13
[OGL LOG][Proc: 0]p: generate_solver: 0.002 [ms]
[OGL LOG][Proc: 0]p: solve: 5444.03 [ms]
[OGL LOG][Proc: 0]p: copy_x_back: 5.815 [ms]
[OGL LOG][lduLduBase.H:330] 
Statistics:
	Time per iteration: 2299 [mu s]
	Time per residual norm calculation: 451.000000 [mu s]
	Time per iteration and DOF: 0.085148 [ns]
	Retrieve results bandwidth 1.160000 [GByte/s]
[OGL LOG][Proc: 0]p: solve_multi_gpu: 5467.76 [ms]
BJhipGKOCG:  Solving for p, Initial residual = 0.873679, Final residual = 9.5342e-05, No Iterations 2367
[INFO] SolveP: 5517.32 [ms]
time step continuity errors : sum local = 1.05491e-08, global = 4.3674e-22, cumulative = 6.55122e-21
[INFO] ContinuityError: 25.688 [ms]
[INFO] CorrectBoundary: 0.921 [ms]
[INFO] PISOStep: 5942.18 [ms]
[INFO] TimeStep: 13869.2 [ms]
ExecutionTime = 71.53 s  ClockTime = 64 s

Time = 0.000996

Courant Number mean: 0.0301078 max: 0.478345
[INFO] MatrixAssemblyU: 210.509 [ms]
DILUPBiCGStab:  Solving for Ux, Initial residual = 0.0271471, Final residual = 0.00232914, No Iterations 5
DILUPBiCGStab:  Solving for Uy, Initial residual = 0.112269, Final residual = 0.00922693, No Iterations 5
DILUPBiCGStab:  Solving for Uz, Initial residual = 0.58997, Final residual = 0.0274536, No Iterations 5
[INFO] MomentumPredictor: 1677.89 [ms]
[INFO] MatrixAssemblyPI: 242.229 [ms]
[INFO] AdjustPhi: 12.143 [ms]
[INFO] ConstrainPressure: 0.003 [ms]
[INFO] MatrixAssemblyPII: 70.236 [ms]
[OGL LOG][Proc: 0]: global_index_init: 0.041 [ms]
[OGL LOG][Proc: 0]p_local_coeffs: call_update: 0 [ms]
[OGL LOG][Proc: 0]p_non_local_coeffs: call_update: 0 [ms]
[OGL LOG][Proc: 0]p: update_local_matrix_data: 50.878 [ms]
[OGL LOG][Proc: 0]p: update_non_local_matrix_data: 0.41 [ms]
[OGL LOG][Proc: 0]p_matrix: call_update: 2.082 [ms]
[OGL LOG][Proc: 0]p_rhs: call_update: 3.443 [ms]
[OGL LOG][Preconditioner.H:121] Generate preconditioner BJ MaxBlockSize 1
[OGL LOG][Proc: 0]p: init_precond: 1.198 [ms]
[OGL LOG][StoppingCriterion.H:237] Creating stopping criterion with minIter 1420 frequency 13
[OGL LOG][Proc: 0]p: generate_solver: 0.002 [ms]
[OGL LOG][Proc: 0]p: solve: 5350.14 [ms]
[OGL LOG][Proc: 0]p: copy_x_back: 5.29 [ms]
[OGL LOG][lduLduBase.H:330] 
Statistics:
	Time per iteration: 2260 [mu s]
	Time per residual norm calculation: 441.000000 [mu s]
	Time per iteration and DOF: 0.083704 [ns]
	Retrieve results bandwidth 1.275000 [GByte/s]
[OGL LOG][Proc: 0]p: solve_multi_gpu: 5368.84 [ms]
BJhipGKOCG:  Solving for p, Initial residual = 0.890412, Final residual = 8.80749e-05, No Iterations 2367
[INFO] SolveP: 5428.9 [ms]
time step continuity errors : sum local = 1.01216e-08, global = 4.52252e-22, cumulative = 7.00347e-21
[INFO] ContinuityError: 22.095 [ms]
[INFO] CorrectBoundary: 0.766 [ms]
[INFO] PISOStep: 5861.79 [ms]
[INFO] MatrixAssemblyPI: 235.017 [ms]
[INFO] AdjustPhi: 11.711 [ms]
[INFO] ConstrainPressure: 0.003 [ms]
[INFO] MatrixAssemblyPII: 70.1 [ms]
[OGL LOG][Proc: 0]: global_index_init: 0.07 [ms]
[OGL LOG][Proc: 0]p_local_coeffs: call_update: 0 [ms]
[OGL LOG][Proc: 0]p_non_local_coeffs: call_update: 0 [ms]
[OGL LOG][Proc: 0]p: update_local_matrix_data: 43.572 [ms]
[OGL LOG][Proc: 0]p: update_non_local_matrix_data: 0.151 [ms]
[OGL LOG][Proc: 0]p_matrix: call_update: 1.831 [ms]
[OGL LOG][Proc: 0]p_rhs: call_update: 3.049 [ms]
[OGL LOG][Preconditioner.H:121] Generate preconditioner BJ MaxBlockSize 1
[OGL LOG][Proc: 0]p: init_precond: 1.092 [ms]
[OGL LOG][StoppingCriterion.H:237] Creating stopping criterion with minIter 1420 frequency 13
[OGL LOG][Proc: 0]p: generate_solver: 0.001 [ms]
[OGL LOG][Proc: 0]p: solve: 5355.1 [ms]
[OGL LOG][Proc: 0]p: copy_x_back: 5.793 [ms]
[OGL LOG][lduLduBase.H:330] 
Statistics:
	Time per iteration: 2274 [mu s]
	Time per residual norm calculation: 441.000000 [mu s]
	Time per iteration and DOF: 0.084222 [ns]
	Retrieve results bandwidth 1.165000 [GByte/s]
[OGL LOG][Proc: 0]p: solve_multi_gpu: 5373.51 [ms]
BJhipGKOCG:  Solving for p, Initial residual = 0.827124, Final residual = 9.60154e-05, No Iterations 2354
[INFO] SolveP: 5426.44 [ms]
time step continuity errors : sum local = 1.12002e-08, global = 2.84281e-22, cumulative = 7.28775e-21
[INFO] ContinuityError: 29.844 [ms]
[INFO] CorrectBoundary: 0.706 [ms]
[INFO] PISOStep: 5854.94 [ms]
[INFO] TimeStep: 13632.2 [ms]
ExecutionTime = 87 s  ClockTime = 78 s

Time = 0.001162

Courant Number mean: 0.0325679 max: 0.512351
[INFO] MatrixAssemblyU: 214.225 [ms]
DILUPBiCGStab:  Solving for Ux, Initial residual = 0.0246335, Final residual = 0.00216065, No Iterations 5
DILUPBiCGStab:  Solving for Uy, Initial residual = 0.0988388, Final residual = 0.00848359, No Iterations 5
DILUPBiCGStab:  Solving for Uz, Initial residual = 0.563961, Final residual = 0.0243249, No Iterations 5
[INFO] MomentumPredictor: 1668.17 [ms]
[INFO] MatrixAssemblyPI: 241.86 [ms]
[INFO] AdjustPhi: 12.173 [ms]
[INFO] ConstrainPressure: 0.003 [ms]
[INFO] MatrixAssemblyPII: 70.114 [ms]
[OGL LOG][Proc: 0]: global_index_init: 0.057 [ms]
[OGL LOG][Proc: 0]p_local_coeffs: call_update: 0 [ms]
[OGL LOG][Proc: 0]p_non_local_coeffs: call_update: 0 [ms]
[OGL LOG][Proc: 0]p: update_local_matrix_data: 51.708 [ms]
[OGL LOG][Proc: 0]p: update_non_local_matrix_data: 0.121 [ms]
[OGL LOG][Proc: 0]p_matrix: call_update: 1.87 [ms]
[OGL LOG][Proc: 0]p_rhs: call_update: 5.426 [ms]
[OGL LOG][Preconditioner.H:121] Generate preconditioner BJ MaxBlockSize 1
[OGL LOG][Proc: 0]p: init_precond: 1.125 [ms]
[OGL LOG][StoppingCriterion.H:237] Creating stopping criterion with minIter 1412 frequency 13
[OGL LOG][Proc: 0]p: generate_solver: 0.002 [ms]
[OGL LOG][Proc: 0]p: solve: 4815.48 [ms]
[OGL LOG][Proc: 0]p: copy_x_back: 5.847 [ms]
[OGL LOG][lduLduBase.H:330] 
Statistics:
	Time per iteration: 2299 [mu s]
	Time per residual norm calculation: 439.000000 [mu s]
	Time per iteration and DOF: 0.085148 [ns]
	Retrieve results bandwidth 1.154000 [GByte/s]
[OGL LOG][Proc: 0]p: solve_multi_gpu: 4845.2 [ms]
BJhipGKOCG:  Solving for p, Initial residual = 0.907983, Final residual = 9.58052e-05, No Iterations 2094
[INFO] SolveP: 4906.26 [ms]
time step continuity errors : sum local = 1.07273e-08, global = 4.12314e-22, cumulative = 7.70006e-21
[INFO] ContinuityError: 27.253 [ms]
[INFO] CorrectBoundary: 1.478 [ms]
[INFO] PISOStep: 5337.92 [ms]
[INFO] MatrixAssemblyPI: 235.727 [ms]
[INFO] AdjustPhi: 11.918 [ms]
[INFO] ConstrainPressure: 0.003 [ms]
[INFO] MatrixAssemblyPII: 69.126 [ms]
[OGL LOG][Proc: 0]: global_index_init: 0.041 [ms]
[OGL LOG][Proc: 0]p_local_coeffs: call_update: 0 [ms]
[OGL LOG][Proc: 0]p_non_local_coeffs: call_update: 0 [ms]
[OGL LOG][Proc: 0]p: update_local_matrix_data: 41.02 [ms]
[OGL LOG][Proc: 0]p: update_non_local_matrix_data: 0.124 [ms]
[OGL LOG][Proc: 0]p_matrix: call_update: 1.684 [ms]
[OGL LOG][Proc: 0]p_rhs: call_update: 3.635 [ms]
[OGL LOG][Preconditioner.H:121] Generate preconditioner BJ MaxBlockSize 1
[OGL LOG][Proc: 0]p: init_precond: 1.136 [ms]
[OGL LOG][StoppingCriterion.H:237] Creating stopping criterion with minIter 1256 frequency 12
[OGL LOG][Proc: 0]p: generate_solver: 0.002 [ms]
[OGL LOG][Proc: 0]p: solve: 4782.89 [ms]
[OGL LOG][Proc: 0]p: copy_x_back: 5.453 [ms]
[OGL LOG][lduLduBase.H:330] 
Statistics:
	Time per iteration: 2276 [mu s]
	Time per residual norm calculation: 438.000000 [mu s]
	Time per iteration and DOF: 0.084296 [ns]
	Retrieve results bandwidth 1.237000 [GByte/s]
[OGL LOG][Proc: 0]p: solve_multi_gpu: 4804.13 [ms]
BJhipGKOCG:  Solving for p, Initial residual = 0.862804, Final residual = 8.88579e-05, No Iterations 2101
[INFO] SolveP: 4853.88 [ms]
time step continuity errors : sum local = 9.84041e-09, global = 6.05958e-22, cumulative = 8.30602e-21
[INFO] ContinuityError: 27.863 [ms]
[INFO] CorrectBoundary: 1.498 [ms]
[INFO] PISOStep: 5281.41 [ms]
[INFO] TimeStep: 12528.5 [ms]
ExecutionTime = 101.17 s  ClockTime = 90 s

Time = 0.001328

Courant Number mean: 0.0346366 max: 0.481266
[INFO] MatrixAssemblyU: 213.206 [ms]
DILUPBiCGStab:  Solving for Ux, Initial residual = 0.0222193, Final residual = 0.00202285, No Iterations 5
DILUPBiCGStab:  Solving for Uy, Initial residual = 0.0875445, Final residual = 0.00712992, No Iterations 5
DILUPBiCGStab:  Solving for Uz, Initial residual = 0.521473, Final residual = 0.0219367, No Iterations 5
[INFO] MomentumPredictor: 1675.85 [ms]
[INFO] MatrixAssemblyPI: 241.577 [ms]
[INFO] AdjustPhi: 11.625 [ms]
[INFO] ConstrainPressure: 0.003 [ms]
[INFO] MatrixAssemblyPII: 69.968 [ms]
[OGL LOG][Proc: 0]: global_index_init: 0.081 [ms]
[OGL LOG][Proc: 0]p_local_coeffs: call_update: 0 [ms]
[OGL LOG][Proc: 0]p_non_local_coeffs: call_update: 0 [ms]
[OGL LOG][Proc: 0]p: update_local_matrix_data: 45.781 [ms]
[OGL LOG][Proc: 0]p: update_non_local_matrix_data: 0.146 [ms]
[OGL LOG][Proc: 0]p_matrix: call_update: 1.697 [ms]
[OGL LOG][Proc: 0]p_rhs: call_update: 3.588 [ms]
[OGL LOG][Preconditioner.H:121] Generate preconditioner BJ MaxBlockSize 1
[OGL LOG][Proc: 0]p: init_precond: 1.133 [ms]
[OGL LOG][StoppingCriterion.H:237] Creating stopping criterion with minIter 1260 frequency 12
[OGL LOG][Proc: 0]p: generate_solver: 0.002 [ms]
[OGL LOG][Proc: 0]p: solve: 5252.23 [ms]
[OGL LOG][Proc: 0]p: copy_x_back: 5.017 [ms]
[OGL LOG][lduLduBase.H:330] 
Statistics:
	Time per iteration: 2278 [mu s]
	Time per residual norm calculation: 438.000000 [mu s]
	Time per iteration and DOF: 0.084370 [ns]
	Retrieve results bandwidth 1.345000 [GByte/s]
[OGL LOG][Proc: 0]p: solve_multi_gpu: 5274.11 [ms]
BJhipGKOCG:  Solving for p, Initial residual = 0.886748, Final residual = 9.26183e-05, No Iterations 2305
[INFO] SolveP: 5328.63 [ms]
time step continuity errors : sum local = 1.05587e-08, global = 1.10141e-21, cumulative = 9.40743e-21
[INFO] ContinuityError: 27.683 [ms]
[INFO] CorrectBoundary: 0.627 [ms]
[INFO] PISOStep: 5760.41 [ms]
[INFO] MatrixAssemblyPI: 233.704 [ms]
[INFO] AdjustPhi: 12.114 [ms]
[INFO] ConstrainPressure: 0.003 [ms]
[INFO] MatrixAssemblyPII: 69.506 [ms]
[OGL LOG][Proc: 0]: global_index_init: 0.626 [ms]
[OGL LOG][Proc: 0]p_local_coeffs: call_update: 0 [ms]
[OGL LOG][Proc: 0]p_non_local_coeffs: call_update: 0 [ms]
[OGL LOG][Proc: 0]p: update_local_matrix_data: 39.663 [ms]
[OGL LOG][Proc: 0]p: update_non_local_matrix_data: 0.123 [ms]
[OGL LOG][Proc: 0]p_matrix: call_update: 1.616 [ms]
[OGL LOG][Proc: 0]p_rhs: call_update: 3.632 [ms]
[OGL LOG][Preconditioner.H:121] Generate preconditioner BJ MaxBlockSize 1
[OGL LOG][Proc: 0]p: init_precond: 1.109 [ms]
[OGL LOG][StoppingCriterion.H:237] Creating stopping criterion with minIter 1383 frequency 13
[OGL LOG][Proc: 0]p: generate_solver: 0.002 [ms]
[OGL LOG][Proc: 0]p: solve: 5214.81 [ms]
[OGL LOG][Proc: 0]p: copy_x_back: 5.112 [ms]
[OGL LOG][lduLduBase.H:330] 
Statistics:
	Time per iteration: 2265 [mu s]
	Time per residual norm calculation: 437.000000 [mu s]
	Time per iteration and DOF: 0.083889 [ns]
	Retrieve results bandwidth 1.320000 [GByte/s]
[OGL LOG][Proc: 0]p: solve_multi_gpu: 5238.83 [ms]
BJhipGKOCG:  Solving for p, Initial residual = 0.820842, Final residual = 8.87834e-05, No Iterations 2302
[INFO] SolveP: 5288.88 [ms]
time step continuity errors : sum local = 1.02594e-08, global = 5.74728e-22, cumulative = 9.98215e-21
[INFO] ContinuityError: 27.074 [ms]
[INFO] CorrectBoundary: 1.294 [ms]
[INFO] PISOStep: 5713.56 [ms]
[INFO] TimeStep: 13389.7 [ms]
ExecutionTime = 116.37 s  ClockTime = 104 s

Time = 0.001494

Courant Number mean: 0.0365679 max: 0.51855
[INFO] MatrixAssemblyU: 213.757 [ms]
DILUPBiCGStab:  Solving for Ux, Initial residual = 0.0206519, Final residual = 0.00188711, No Iterations 5
DILUPBiCGStab:  Solving for Uy, Initial residual = 0.0824666, Final residual = 0.00672573, No Iterations 5
DILUPBiCGStab:  Solving for Uz, Initial residual = 0.516409, Final residual = 0.0204992, No Iterations 5
[INFO] MomentumPredictor: 1672.66 [ms]
[INFO] MatrixAssemblyPI: 242.378 [ms]
[INFO] AdjustPhi: 11.103 [ms]
[INFO] ConstrainPressure: 0.003 [ms]
[INFO] MatrixAssemblyPII: 66.592 [ms]
[OGL LOG][Proc: 0]: global_index_init: 0.043 [ms]
[OGL LOG][Proc: 0]p_local_coeffs: call_update: 0 [ms]
[OGL LOG][Proc: 0]p_non_local_coeffs: call_update: 0 [ms]
[OGL LOG][Proc: 0]p: update_local_matrix_data: 37.855 [ms]
[OGL LOG][Proc: 0]p: update_non_local_matrix_data: 0.122 [ms]
[OGL LOG][Proc: 0]p_matrix: call_update: 2.037 [ms]
[OGL LOG][Proc: 0]p_rhs: call_update: 3.085 [ms]
[OGL LOG][Preconditioner.H:121] Generate preconditioner BJ MaxBlockSize 1
[OGL LOG][Proc: 0]p: init_precond: 1.149 [ms]
[OGL LOG][StoppingCriterion.H:237] Creating stopping criterion with minIter 1381 frequency 13
[OGL LOG][Proc: 0]p: generate_solver: 0.002 [ms]
[OGL LOG][Proc: 0]p: solve: 4726.57 [ms]
[OGL LOG][Proc: 0]p: copy_x_back: 4.383 [ms]
[OGL LOG][lduLduBase.H:330] 
Statistics:
	Time per iteration: 2271 [mu s]
	Time per residual norm calculation: 441.000000 [mu s]
	Time per iteration and DOF: 0.084111 [ns]
	Retrieve results bandwidth 1.540000 [GByte/s]
[OGL LOG][Proc: 0]p: solve_multi_gpu: 4754.69 [ms]
BJhipGKOCG:  Solving for p, Initial residual = 0.903866, Final residual = 9.81814e-05, No Iterations 2081
[INFO] SolveP: 4801.44 [ms]
time step continuity errors : sum local = 1.09447e-08, global = 9.9649e-22, cumulative = 1.09786e-20
[INFO] ContinuityError: 28.146 [ms]
[INFO] CorrectBoundary: 0.892 [ms]
[INFO] PISOStep: 5234.95 [ms]
[INFO] MatrixAssemblyPI: 234.866 [ms]
[INFO] AdjustPhi: 11.444 [ms]
[INFO] ConstrainPressure: 0.003 [ms]
[INFO] MatrixAssemblyPII: 69.487 [ms]
[OGL LOG][Proc: 0]: global_index_init: 0.035 [ms]
[OGL LOG][Proc: 0]p_local_coeffs: call_update: 0 [ms]
[OGL LOG][Proc: 0]p_non_local_coeffs: call_update: 0 [ms]
[OGL LOG][Proc: 0]p: update_local_matrix_data: 47.636 [ms]
[OGL LOG][Proc: 0]p: update_non_local_matrix_data: 0.15 [ms]
[OGL LOG][Proc: 0]p_matrix: call_update: 1.805 [ms]
[OGL LOG][Proc: 0]p_rhs: call_update: 7.145 [ms]
[OGL LOG][Preconditioner.H:121] Generate preconditioner BJ MaxBlockSize 1
[OGL LOG][Proc: 0]p: init_precond: 1.018 [ms]
[OGL LOG][StoppingCriterion.H:237] Creating stopping criterion with minIter 1248 frequency 12
[OGL LOG][Proc: 0]p: generate_solver: 0.001 [ms]
[OGL LOG][Proc: 0]p: solve: 4704 [ms]
[OGL LOG][Proc: 0]p: copy_x_back: 4.569 [ms]
[OGL LOG][lduLduBase.H:330] 
Statistics:
	Time per iteration: 2277 [mu s]
	Time per residual norm calculation: 428.000000 [mu s]
	Time per iteration and DOF: 0.084333 [ns]
	Retrieve results bandwidth 1.477000 [GByte/s]
[OGL LOG][Proc: 0]p: solve_multi_gpu: 4729.24 [ms]
BJhipGKOCG:  Solving for p, Initial residual = 0.85415, Final residual = 7.94207e-05, No Iterations 2065
[INFO] SolveP: 4786.05 [ms]
time step continuity errors : sum local = 8.76706e-09, global = -7.00557e-22, cumulative = 1.02781e-20
[INFO] ContinuityError: 27.337 [ms]
[INFO] CorrectBoundary: 0.537 [ms]
[INFO] PISOStep: 5212.16 [ms]
[INFO] TimeStep: 12360.5 [ms]
ExecutionTime = 130.36 s  ClockTime = 116 s

Time = 0.00166

Courant Number mean: 0.0382481 max: 0.483674
[INFO] MatrixAssemblyU: 215.891 [ms]
DILUPBiCGStab:  Solving for Ux, Initial residual = 0.0194692, Final residual = 0.00179867, No Iterations 5
DILUPBiCGStab:  Solving for Uy, Initial residual = 0.0741045, Final residual = 0.00583253, No Iterations 5
DILUPBiCGStab:  Solving for Uz, Initial residual = 0.49502, Final residual = 0.0198341, No Iterations 5
[INFO] MomentumPredictor: 1666.19 [ms]
[INFO] MatrixAssemblyPI: 232.986 [ms]
[INFO] AdjustPhi: 20.149 [ms]
[INFO] ConstrainPressure: 0.002 [ms]
[INFO] MatrixAssemblyPII: 69.832 [ms]
[OGL LOG][Proc: 0]: global_index_init: 0.517 [ms]
[OGL LOG][Proc: 0]p_local_coeffs: call_update: 0 [ms]
[OGL LOG][Proc: 0]p_non_local_coeffs: call_update: 0 [ms]
[OGL LOG][Proc: 0]p: update_local_matrix_data: 36.147 [ms]
[OGL LOG][Proc: 0]p: update_non_local_matrix_data: 0.124 [ms]
[OGL LOG][Proc: 0]p_matrix: call_update: 1.434 [ms]
[OGL LOG][Proc: 0]p_rhs: call_update: 4.06 [ms]
[OGL LOG][Preconditioner.H:121] Generate preconditioner BJ MaxBlockSize 1
[OGL LOG][Proc: 0]p: init_precond: 1.005 [ms]
[OGL LOG][StoppingCriterion.H:237] Creating stopping criterion with minIter 1239 frequency 12
[OGL LOG][Proc: 0]p: generate_solver: 0.002 [ms]
[OGL LOG][Proc: 0]p: solve: 5206.05 [ms]
[OGL LOG][Proc: 0]p: copy_x_back: 5.84 [ms]
[OGL LOG][lduLduBase.H:330] 
Statistics:
	Time per iteration: 2270 [mu s]
	Time per residual norm calculation: 464.000000 [mu s]
	Time per iteration and DOF: 0.084074 [ns]
	Retrieve results bandwidth 1.155000 [GByte/s]
[OGL LOG][Proc: 0]p: solve_multi_gpu: 5234.32 [ms]
BJhipGKOCG:  Solving for p, Initial residual = 0.885469, Final residual = 9.07195e-05, No Iterations 2293
[INFO] SolveP: 5279.79 [ms]
time step continuity errors : sum local = 1.04423e-08, global = -2.07191e-23, cumulative = 1.02574e-20
[INFO] ContinuityError: 21.968 [ms]
[INFO] CorrectBoundary: 0.794 [ms]
[INFO] PISOStep: 5711.8 [ms]
[INFO] MatrixAssemblyPI: 233.94 [ms]
[INFO] AdjustPhi: 12.752 [ms]
[INFO] ConstrainPressure: 0.002 [ms]
[INFO] MatrixAssemblyPII: 69.951 [ms]
[OGL LOG][Proc: 0]: global_index_init: 0.07 [ms]
[OGL LOG][Proc: 0]p_local_coeffs: call_update: 0 [ms]
[OGL LOG][Proc: 0]p_non_local_coeffs: call_update: 0 [ms]
[OGL LOG][Proc: 0]p: update_local_matrix_data: 64.302 [ms]
[OGL LOG][Proc: 0]p: update_non_local_matrix_data: 0.132 [ms]
[OGL LOG][Proc: 0]p_matrix: call_update: 1.409 [ms]
[OGL LOG][Proc: 0]p_rhs: call_update: 3.952 [ms]
[OGL LOG][Preconditioner.H:121] Generate preconditioner BJ MaxBlockSize 1
[OGL LOG][Proc: 0]p: init_precond: 0.991 [ms]
[OGL LOG][StoppingCriterion.H:237] Creating stopping criterion with minIter 1375 frequency 15
[OGL LOG][Proc: 0]p: generate_solver: 0.002 [ms]
[OGL LOG][Proc: 0]p: solve: 5172.66 [ms]
[OGL LOG][Proc: 0]p: copy_x_back: 4.576 [ms]
[OGL LOG][lduLduBase.H:330] 
Statistics:
	Time per iteration: 2252 [mu s]
	Time per residual norm calculation: 430.000000 [mu s]
	Time per iteration and DOF: 0.083407 [ns]
	Retrieve results bandwidth 1.475000 [GByte/s]
[OGL LOG][Proc: 0]p: solve_multi_gpu: 5187.28 [ms]
BJhipGKOCG:  Solving for p, Initial residual = 0.816467, Final residual = 7.98675e-05, No Iterations 2296
[INFO] SolveP: 5262.15 [ms]
time step continuity errors : sum local = 9.30754e-09, global = -3.55477e-22, cumulative = 9.90189e-21
[INFO] ContinuityError: 27.087 [ms]
[INFO] CorrectBoundary: 1.257 [ms]
[INFO] PISOStep: 5686.56 [ms]
[INFO] TimeStep: 13307.7 [ms]
ExecutionTime = 145.46 s  ClockTime = 130 s

Time = 0.001826

Courant Number mean: 0.0398559 max: 0.52517
[INFO] MatrixAssemblyU: 207.095 [ms]
DILUPBiCGStab:  Solving for Ux, Initial residual = 0.0182741, Final residual = 0.00167148, No Iterations 5
DILUPBiCGStab:  Solving for Uy, Initial residual = 0.0725271, Final residual = 0.00561558, No Iterations 5
DILUPBiCGStab:  Solving for Uz, Initial residual = 0.496232, Final residual = 0.0184792, No Iterations 5
[INFO] MomentumPredictor: 1681.39 [ms]
[INFO] MatrixAssemblyPI: 241.645 [ms]
[INFO] AdjustPhi: 11.598 [ms]
[INFO] ConstrainPressure: 0.003 [ms]
[INFO] MatrixAssemblyPII: 69.99 [ms]
[OGL LOG][Proc: 0]: global_index_init: 0.074 [ms]
[OGL LOG][Proc: 0]p_local_coeffs: call_update: 0 [ms]
[OGL LOG][Proc: 0]p_non_local_coeffs: call_update: 0 [ms]
[OGL LOG][Proc: 0]p: update_local_matrix_data: 39.458 [ms]
[OGL LOG][Proc: 0]p: update_non_local_matrix_data: 0.118 [ms]
[OGL LOG][Proc: 0]p_matrix: call_update: 1.674 [ms]
[OGL LOG][Proc: 0]p_rhs: call_update: 3.625 [ms]
[OGL LOG][Preconditioner.H:121] Generate preconditioner BJ MaxBlockSize 1
[OGL LOG][Proc: 0]p: init_precond: 1.1 [ms]
[OGL LOG][StoppingCriterion.H:237] Creating stopping criterion with minIter 1377 frequency 13
[OGL LOG][Proc: 0]p: generate_solver: 0.003 [ms]
[OGL LOG][Proc: 0]p: solve: 5071.66 [ms]
[OGL LOG][Proc: 0]p: copy_x_back: 5.525 [ms]
[OGL LOG][lduLduBase.H:330] 
Statistics:
	Time per iteration: 2293 [mu s]
	Time per residual norm calculation: 433.000000 [mu s]
	Time per iteration and DOF: 0.084926 [ns]
	Retrieve results bandwidth 1.221000 [GByte/s]
[OGL LOG][Proc: 0]p: solve_multi_gpu: 5106.54 [ms]
BJhipGKOCG:  Solving for p, Initial residual = 0.903984, Final residual = 8.74037e-05, No Iterations 2211
[INFO] SolveP: 5154.42 [ms]
time step continuity errors : sum local = 9.99564e-09, global = 2.54512e-21, cumulative = 1.2447e-20
[INFO] ContinuityError: 26.204 [ms]
[INFO] CorrectBoundary: 0.926 [ms]
[INFO] PISOStep: 5586.43 [ms]
[INFO] MatrixAssemblyPI: 232.968 [ms]
[INFO] AdjustPhi: 13.088 [ms]
[INFO] ConstrainPressure: 0.003 [ms]
[INFO] MatrixAssemblyPII: 69.694 [ms]
[OGL LOG][Proc: 0]: global_index_init: 0.044 [ms]
[OGL LOG][Proc: 0]p_local_coeffs: call_update: 0 [ms]
[OGL LOG][Proc: 0]p_non_local_coeffs: call_update: 0 [ms]
[OGL LOG][Proc: 0]p: update_local_matrix_data: 38.306 [ms]
[OGL LOG][Proc: 0]p: update_non_local_matrix_data: 0.178 [ms]
[OGL LOG][Proc: 0]p_matrix: call_update: 1.704 [ms]
[OGL LOG][Proc: 0]p_rhs: call_update: 6.016 [ms]
[OGL LOG][Preconditioner.H:121] Generate preconditioner BJ MaxBlockSize 1
[OGL LOG][Proc: 0]p: init_precond: 1.108 [ms]
[OGL LOG][StoppingCriterion.H:237] Creating stopping criterion with minIter 1326 frequency 13
[OGL LOG][Proc: 0]p: generate_solver: 0.002 [ms]
[OGL LOG][Proc: 0]p: solve: 5177.84 [ms]
[OGL LOG][Proc: 0]p: copy_x_back: 4.594 [ms]
[OGL LOG][lduLduBase.H:330] 
Statistics:
	Time per iteration: 2262 [mu s]
	Time per residual norm calculation: 443.000000 [mu s]
	Time per iteration and DOF: 0.083778 [ns]
	Retrieve results bandwidth 1.469000 [GByte/s]
[OGL LOG][Proc: 0]p: solve_multi_gpu: 5206.29 [ms]
BJhipGKOCG:  Solving for p, Initial residual = 0.849395, Final residual = 8.10745e-05, No Iterations 2289
[INFO] SolveP: 5254.79 [ms]
time step continuity errors : sum local = 9.19433e-09, global = 1.73652e-21, cumulative = 1.41835e-20
[INFO] ContinuityError: 27.481 [ms]
[INFO] CorrectBoundary: 1.904 [ms]
[INFO] PISOStep: 5679.65 [ms]
[INFO] TimeStep: 13181.7 [ms]
ExecutionTime = 160.41 s  ClockTime = 143 s

Time = 0.001992

Courant Number mean: 0.0412763 max: 0.486777
[INFO] MatrixAssemblyU: 211.424 [ms]
DILUPBiCGStab:  Solving for Ux, Initial residual = 0.0176878, Final residual = 0.00161813, No Iterations 5
DILUPBiCGStab:  Solving for Uy, Initial residual = 0.0659841, Final residual = 0.00493973, No Iterations 5
DILUPBiCGStab:  Solving for Uz, Initial residual = 0.481784, Final residual = 0.018017, No Iterations 5
[INFO] MomentumPredictor: 1671.52 [ms]
[INFO] MatrixAssemblyPI: 241.71 [ms]
[INFO] AdjustPhi: 11.326 [ms]
[INFO] ConstrainPressure: 0.003 [ms]
[INFO] MatrixAssemblyPII: 70.01 [ms]
[OGL LOG][Proc: 0]: global_index_init: 0.073 [ms]
[OGL LOG][Proc: 0]p_local_coeffs: call_update: 0 [ms]
[OGL LOG][Proc: 0]p_non_local_coeffs: call_update: 0 [ms]
[OGL LOG][Proc: 0]p: update_local_matrix_data: 40.523 [ms]
[OGL LOG][Proc: 0]p: update_non_local_matrix_data: 0.121 [ms]
[OGL LOG][Proc: 0]p_matrix: call_update: 1.6 [ms]
[OGL LOG][Proc: 0]p_rhs: call_update: 12.123 [ms]
[OGL LOG][Preconditioner.H:121] Generate preconditioner BJ MaxBlockSize 1
[OGL LOG][Proc: 0]p: init_precond: 0.963 [ms]
[OGL LOG][StoppingCriterion.H:237] Creating stopping criterion with minIter 1373 frequency 13
[OGL LOG][Proc: 0]p: generate_solver: 0.002 [ms]
[OGL LOG][Proc: 0]p: solve: 5183.33 [ms]
[OGL LOG][Proc: 0]p: copy_x_back: 5.725 [ms]
[OGL LOG][lduLduBase.H:330] 
Statistics:
	Time per iteration: 2264 [mu s]
	Time per residual norm calculation: 442.000000 [mu s]
	Time per iteration and DOF: 0.083852 [ns]
	Retrieve results bandwidth 1.179000 [GByte/s]
[OGL LOG][Proc: 0]p: solve_multi_gpu: 5214.83 [ms]
BJhipGKOCG:  Solving for p, Initial residual = 0.886974, Final residual = 8.97816e-05, No Iterations 2289
[INFO] SolveP: 5264.67 [ms]
time step continuity errors : sum local = 1.06833e-08, global = 1.34266e-21, cumulative = 1.55262e-20
[INFO] ContinuityError: 26.214 [ms]
[INFO] CorrectBoundary: 1.246 [ms]
[INFO] PISOStep: 5695.86 [ms]
[INFO] MatrixAssemblyPI: 234.733 [ms]
[INFO] AdjustPhi: 11.132 [ms]
[INFO] ConstrainPressure: 0.003 [ms]
[INFO] MatrixAssemblyPII: 69.881 [ms]
[OGL LOG][Proc: 0]: global_index_init: 0.065 [ms]
[OGL LOG][Proc: 0]p_local_coeffs: call_update: 0 [ms]
[OGL LOG][Proc: 0]p_non_local_coeffs: call_update: 0 [ms]
[OGL LOG][Proc: 0]p: update_local_matrix_data: 36.892 [ms]
[OGL LOG][Proc: 0]p: update_non_local_matrix_data: 0.126 [ms]
[OGL LOG][Proc: 0]p_matrix: call_update: 1.458 [ms]
[OGL LOG][Proc: 0]p_rhs: call_update: 4.17 [ms]
[OGL LOG][Preconditioner.H:121] Generate preconditioner BJ MaxBlockSize 1
[OGL LOG][Proc: 0]p: init_precond: 1.155 [ms]
[OGL LOG][StoppingCriterion.H:237] Creating stopping criterion with minIter 1373 frequency 13
[OGL LOG][Proc: 0]p: generate_solver: 0.002 [ms]
[OGL LOG][Proc: 0]p: solve: 5234.45 [ms]
[OGL LOG][Proc: 0]p: copy_x_back: 4.922 [ms]
[OGL LOG][lduLduBase.H:330] 
Statistics:
	Time per iteration: 2286 [mu s]
	Time per residual norm calculation: 434.000000 [mu s]
	Time per iteration and DOF: 0.084667 [ns]
	Retrieve results bandwidth 1.371000 [GByte/s]
[OGL LOG][Proc: 0]p: solve_multi_gpu: 5269.16 [ms]
BJhipGKOCG:  Solving for p, Initial residual = 0.81651, Final residual = 8.22467e-05, No Iterations 2289
[INFO] SolveP: 5315.79 [ms]
time step continuity errors : sum local = 9.89527e-09, global = 2.11592e-21, cumulative = 1.76421e-20
[INFO] ContinuityError: 30.939 [ms]
[INFO] CorrectBoundary: 1.488 [ms]
[INFO] PISOStep: 5740.11 [ms]
[INFO] TimeStep: 13345.7 [ms]
ExecutionTime = 175.56 s  ClockTime = 156 s

Time = 0.002158

Courant Number mean: 0.0426634 max: 0.532774
[INFO] MatrixAssemblyU: 212.471 [ms]
DILUPBiCGStab:  Solving for Ux, Initial residual = 0.0167449, Final residual = 0.00150084, No Iterations 5
DILUPBiCGStab:  Solving for Uy, Initial residual = 0.0660434, Final residual = 0.00484761, No Iterations 5
DILUPBiCGStab:  Solving for Uz, Initial residual = 0.488922, Final residual = 0.0175022, No Iterations 5
[INFO] MomentumPredictor: 1658.33 [ms]
[INFO] MatrixAssemblyPI: 241.727 [ms]
[INFO] AdjustPhi: 13.046 [ms]
[INFO] ConstrainPressure: 0.003 [ms]
[INFO] MatrixAssemblyPII: 70.238 [ms]
[OGL LOG][Proc: 0]: global_index_init: 1.36 [ms]
[OGL LOG][Proc: 0]p_local_coeffs: call_update: 0 [ms]
[OGL LOG][Proc: 0]p_non_local_coeffs: call_update: 0 [ms]
[OGL LOG][Proc: 0]p: update_local_matrix_data: 47.921 [ms]
[OGL LOG][Proc: 0]p: update_non_local_matrix_data: 0.176 [ms]
[OGL LOG][Proc: 0]p_matrix: call_update: 1.877 [ms]
[OGL LOG][Proc: 0]p_rhs: call_update: 3.832 [ms]
[OGL LOG][Preconditioner.H:121] Generate preconditioner BJ MaxBlockSize 1
[OGL LOG][Proc: 0]p: init_precond: 1.442 [ms]
[OGL LOG][StoppingCriterion.H:237] Creating stopping criterion with minIter 1373 frequency 13
[OGL LOG][Proc: 0]p: generate_solver: 0.002 [ms]
[OGL LOG][Proc: 0]p: solve: 5155.21 [ms]
[OGL LOG][Proc: 0]p: copy_x_back: 5.873 [ms]
[OGL LOG][lduLduBase.H:330] 
Statistics:
	Time per iteration: 2252 [mu s]
	Time per residual norm calculation: 432.000000 [mu s]
	Time per iteration and DOF: 0.083407 [ns]
	Retrieve results bandwidth 1.149000 [GByte/s]
[OGL LOG][Proc: 0]p: solve_multi_gpu: 5181.58 [ms]
BJhipGKOCG:  Solving for p, Initial residual = 0.904663, Final residual = 8.6186e-05, No Iterations 2289
[INFO] SolveP: 5240.6 [ms]
time step continuity errors : sum local = 1.0251e-08, global = -1.66632e-21, cumulative = 1.59758e-20
[INFO] ContinuityError: 25.483 [ms]
[INFO] CorrectBoundary: 1.519 [ms]
[INFO] PISOStep: 5674.28 [ms]
[INFO] MatrixAssemblyPI: 234.635 [ms]
[INFO] AdjustPhi: 11.368 [ms]
[INFO] ConstrainPressure: 0.002 [ms]
[INFO] MatrixAssemblyPII: 70.221 [ms]
[OGL LOG][Proc: 0]: global_index_init: 0.066 [ms]
[OGL LOG][Proc: 0]p_local_coeffs: call_update: 0 [ms]
[OGL LOG][Proc: 0]p_non_local_coeffs: call_update: 0 [ms]
[OGL LOG][Proc: 0]p: update_local_matrix_data: 38.914 [ms]
[OGL LOG][Proc: 0]p: update_non_local_matrix_data: 0.127 [ms]
[OGL LOG][Proc: 0]p_matrix: call_update: 1.952 [ms]
[OGL LOG][Proc: 0]p_rhs: call_update: 3.16 [ms]
[OGL LOG][Preconditioner.H:121] Generate preconditioner BJ MaxBlockSize 1
[OGL LOG][Proc: 0]p: init_precond: 1.19 [ms]
[OGL LOG][StoppingCriterion.H:237] Creating stopping criterion with minIter 1373 frequency 13
[OGL LOG][Proc: 0]p: generate_solver: 0.002 [ms]
[OGL LOG][Proc: 0]p: solve: 5210.34 [ms]
[OGL LOG][Proc: 0]p: copy_x_back: 6.021 [ms]
[OGL LOG][lduLduBase.H:330] 
Statistics:
	Time per iteration: 2276 [mu s]
	Time per residual norm calculation: 437.000000 [mu s]
	Time per iteration and DOF: 0.084296 [ns]
	Retrieve results bandwidth 1.121000 [GByte/s]
[OGL LOG][Proc: 0]p: solve_multi_gpu: 5235.75 [ms]
BJhipGKOCG:  Solving for p, Initial residual = 0.846549, Final residual = 8.04913e-05, No Iterations 2289
[INFO] SolveP: 5283.61 [ms]
time step continuity errors : sum local = 9.50729e-09, global = 1.02424e-21, cumulative = 1.7e-20
[INFO] ContinuityError: 26.275 [ms]
[INFO] CorrectBoundary: 0.919 [ms]
[INFO] PISOStep: 5707.22 [ms]
[INFO] TimeStep: 13279.9 [ms]
ExecutionTime = 190.66 s  ClockTime = 169 s

Time = 0.002324

Courant Number mean: 0.0438967 max: 0.489837
[INFO] MatrixAssemblyU: 212.004 [ms]
DILUPBiCGStab:  Solving for Ux, Initial residual = 0.016511, Final residual = 0.00147575, No Iterations 5
DILUPBiCGStab:  Solving for Uy, Initial residual = 0.0608342, Final residual = 0.00430482, No Iterations 5
DILUPBiCGStab:  Solving for Uz, Initial residual = 0.47986, Final residual = 0.0172174, No Iterations 5
[INFO] MomentumPredictor: 1666.24 [ms]
[INFO] MatrixAssemblyPI: 241.218 [ms]
[INFO] AdjustPhi: 12.567 [ms]
[INFO] ConstrainPressure: 0.003 [ms]
[INFO] MatrixAssemblyPII: 69.739 [ms]
[OGL LOG][Proc: 0]: global_index_init: 0.142 [ms]
[OGL LOG][Proc: 0]p_local_coeffs: call_update: 0 [ms]
[OGL LOG][Proc: 0]p_non_local_coeffs: call_update: 0 [ms]
[OGL LOG][Proc: 0]p: update_local_matrix_data: 57.97 [ms]
[OGL LOG][Proc: 0]p: update_non_local_matrix_data: 0.126 [ms]
[OGL LOG][Proc: 0]p_matrix: call_update: 1.822 [ms]
[OGL LOG][Proc: 0]p_rhs: call_update: 5.141 [ms]
[OGL LOG][Preconditioner.H:121] Generate preconditioner BJ MaxBlockSize 1
[OGL LOG][Proc: 0]p: init_precond: 1.225 [ms]
[OGL LOG][StoppingCriterion.H:237] Creating stopping criterion with minIter 1373 frequency 13
[OGL LOG][Proc: 0]p: generate_solver: 0.003 [ms]
[OGL LOG][Proc: 0]p: solve: 5151.09 [ms]
[OGL LOG][Proc: 0]p: copy_x_back: 5.298 [ms]
[OGL LOG][lduLduBase.H:330] 
Statistics:
	Time per iteration: 2250 [mu s]
	Time per residual norm calculation: 434.000000 [mu s]
	Time per iteration and DOF: 0.083333 [ns]
	Retrieve results bandwidth 1.274000 [GByte/s]
[OGL LOG][Proc: 0]p: solve_multi_gpu: 5176.05 [ms]
BJhipGKOCG:  Solving for p, Initial residual = 0.889332, Final residual = 8.57199e-05, No Iterations 2289
[INFO] SolveP: 5243.01 [ms]
time step continuity errors : sum local = 1.06209e-08, global = 1.44592e-21, cumulative = 1.84459e-20
[INFO] ContinuityError: 25.441 [ms]
[INFO] CorrectBoundary: 0.802 [ms]
[INFO] PISOStep: 5674.98 [ms]
[INFO] MatrixAssemblyPI: 233.927 [ms]
[INFO] AdjustPhi: 12.174 [ms]
[INFO] ConstrainPressure: 0.003 [ms]
[INFO] MatrixAssemblyPII: 70.27 [ms]
[OGL LOG][Proc: 0]: global_index_init: 0.043 [ms]
[OGL LOG][Proc: 0]p_local_coeffs: call_update: 0 [ms]
[OGL LOG][Proc: 0]p_non_local_coeffs: call_update: 0 [ms]
[OGL LOG][Proc: 0]p: update_local_matrix_data: 38.982 [ms]
[OGL LOG][Proc: 0]p: update_non_local_matrix_data: 0.189 [ms]
[OGL LOG][Proc: 0]p_matrix: call_update: 1.973 [ms]
[OGL LOG][Proc: 0]p_rhs: call_update: 3.982 [ms]
[OGL LOG][Preconditioner.H:121] Generate preconditioner BJ MaxBlockSize 1
[OGL LOG][Proc: 0]p: init_precond: 1.073 [ms]
[OGL LOG][StoppingCriterion.H:237] Creating stopping criterion with minIter 1373 frequency 13
[OGL LOG][Proc: 0]p: generate_solver: 0.001 [ms]
[OGL LOG][Proc: 0]p: solve: 5215.11 [ms]
[OGL LOG][Proc: 0]p: copy_x_back: 5.988 [ms]
[OGL LOG][lduLduBase.H:330] 
Statistics:
	Time per iteration: 2278 [mu s]
	Time per residual norm calculation: 446.000000 [mu s]
	Time per iteration and DOF: 0.084370 [ns]
	Retrieve results bandwidth 1.127000 [GByte/s]
[OGL LOG][Proc: 0]p: solve_multi_gpu: 5241.8 [ms]
BJhipGKOCG:  Solving for p, Initial residual = 0.817717, Final residual = 7.92311e-05, No Iterations 2289
[INFO] SolveP: 5290.62 [ms]
time step continuity errors : sum local = 9.91189e-09, global = 1.11685e-22, cumulative = 1.85576e-20
[INFO] ContinuityError: 25.076 [ms]
[INFO] CorrectBoundary: 0.764 [ms]
[INFO] PISOStep: 5713.8 [ms]
[INFO] TimeStep: 13294 [ms]
ExecutionTime = 205.73 s  ClockTime = 183 s

Time = 0.00249

Courant Number mean: 0.0451233 max: 0.541413
[INFO] MatrixAssemblyU: 213.685 [ms]
DILUPBiCGStab:  Solving for Ux, Initial residual = 0.0157531, Final residual = 0.0013636, No Iterations 5
DILUPBiCGStab:  Solving for Uy, Initial residual = 0.0617137, Final residual = 0.00428853, No Iterations 5
DILUPBiCGStab:  Solving for Uz, Initial residual = 0.488935, Final residual = 0.0168986, No Iterations 5
[INFO] MomentumPredictor: 1661.13 [ms]
[INFO] MatrixAssemblyPI: 241.78 [ms]
[INFO] AdjustPhi: 11.28 [ms]
[INFO] ConstrainPressure: 0.003 [ms]
[INFO] MatrixAssemblyPII: 70.242 [ms]
[OGL LOG][Proc: 0]: global_index_init: 0.042 [ms]
[OGL LOG][Proc: 0]p_local_coeffs: call_update: 0 [ms]
[OGL LOG][Proc: 0]p_non_local_coeffs: call_update: 0 [ms]
[OGL LOG][Proc: 0]p: update_local_matrix_data: 48.86 [ms]
[OGL LOG][Proc: 0]p: update_non_local_matrix_data: 0.121 [ms]
[OGL LOG][Proc: 0]p_matrix: call_update: 2.175 [ms]
[OGL LOG][Proc: 0]p_rhs: call_update: 4.536 [ms]
[OGL LOG][Preconditioner.H:121] Generate preconditioner BJ MaxBlockSize 1
[OGL LOG][Proc: 0]p: init_precond: 1.256 [ms]
[OGL LOG][StoppingCriterion.H:237] Creating stopping criterion with minIter 1373 frequency 13
[OGL LOG][Proc: 0]p: generate_solver: 0.002 [ms]
[OGL LOG][Proc: 0]p: solve: 5190.21 [ms]
[OGL LOG][Proc: 0]p: copy_x_back: 5.594 [ms]
[OGL LOG][lduLduBase.H:330] 
Statistics:
	Time per iteration: 2267 [mu s]
	Time per residual norm calculation: 439.000000 [mu s]
	Time per iteration and DOF: 0.083963 [ns]
	Retrieve results bandwidth 1.206000 [GByte/s]
[OGL LOG][Proc: 0]p: solve_multi_gpu: 5217.88 [ms]
BJhipGKOCG:  Solving for p, Initial residual = 0.905497, Final residual = 8.49927e-05, No Iterations 2289
[INFO] SolveP: 5275.27 [ms]
time step continuity errors : sum local = 1.05622e-08, global = 9.84891e-22, cumulative = 1.95425e-20
[INFO] ContinuityError: 25.764 [ms]
[INFO] CorrectBoundary: 1.094 [ms]
[INFO] PISOStep: 5705.98 [ms]
[INFO] MatrixAssemblyPI: 234.471 [ms]
[INFO] AdjustPhi: 12.012 [ms]
[INFO] ConstrainPressure: 0.003 [ms]
[INFO] MatrixAssemblyPII: 70.169 [ms]
[OGL LOG][Proc: 0]: global_index_init: 0.284 [ms]
[OGL LOG][Proc: 0]p_local_coeffs: call_update: 0 [ms]
[OGL LOG][Proc: 0]p_non_local_coeffs: call_update: 0 [ms]
[OGL LOG][Proc: 0]p: update_local_matrix_data: 38.658 [ms]
[OGL LOG][Proc: 0]p: update_non_local_matrix_data: 0.127 [ms]
[OGL LOG][Proc: 0]p_matrix: call_update: 1.992 [ms]
[OGL LOG][Proc: 0]p_rhs: call_update: 3.479 [ms]
[OGL LOG][Preconditioner.H:121] Generate preconditioner BJ MaxBlockSize 1
[OGL LOG][Proc: 0]p: init_precond: 1.098 [ms]
[OGL LOG][StoppingCriterion.H:237] Creating stopping criterion with minIter 1373 frequency 13
[OGL LOG][Proc: 0]p: generate_solver: 0.003 [ms]
[OGL LOG][Proc: 0]p: solve: 5213.97 [ms]
[OGL LOG][Proc: 0]p: copy_x_back: 5.898 [ms]
[OGL LOG][lduLduBase.H:330] 
Statistics:
	Time per iteration: 2277 [mu s]
	Time per residual norm calculation: 435.000000 [mu s]
	Time per iteration and DOF: 0.084333 [ns]
	Retrieve results bandwidth 1.144000 [GByte/s]
[OGL LOG][Proc: 0]p: solve_multi_gpu: 5240.45 [ms]
BJhipGKOCG:  Solving for p, Initial residual = 0.844388, Final residual = 7.94719e-05, No Iterations 2289
[INFO] SolveP: 5288.41 [ms]
time step continuity errors : sum local = 9.82081e-09, global = 5.27206e-22, cumulative = 2.00697e-20
[INFO] ContinuityError: 27.935 [ms]
[INFO] CorrectBoundary: 1.041 [ms]
[INFO] PISOStep: 5712.98 [ms]
[INFO] TimeStep: 13320.9 [ms]
ExecutionTime = 220.86 s  ClockTime = 196 s

Time = 0.002656

Courant Number mean: 0.046214 max: 0.492947
[INFO] MatrixAssemblyU: 213.804 [ms]
DILUPBiCGStab:  Solving for Ux, Initial residual = 0.0157326, Final residual = 0.00135868, No Iterations 5
DILUPBiCGStab:  Solving for Uy, Initial residual = 0.0576098, Final residual = 0.00383995, No Iterations 5
DILUPBiCGStab:  Solving for Uz, Initial residual = 0.482938, Final residual = 0.0166873, No Iterations 5
[INFO] MomentumPredictor: 1672.3 [ms]
[INFO] MatrixAssemblyPI: 242.32 [ms]
[INFO] AdjustPhi: 11.619 [ms]
[INFO] ConstrainPressure: 0.002 [ms]
[INFO] MatrixAssemblyPII: 69.777 [ms]
[OGL LOG][Proc: 0]: global_index_init: 0.056 [ms]
[OGL LOG][Proc: 0]p_local_coeffs: call_update: 0 [ms]
[OGL LOG][Proc: 0]p_non_local_coeffs: call_update: 0 [ms]
[OGL LOG][Proc: 0]p: update_local_matrix_data: 43.741 [ms]
[OGL LOG][Proc: 0]p: update_non_local_matrix_data: 0.171 [ms]
[OGL LOG][Proc: 0]p_matrix: call_update: 2.269 [ms]
[OGL LOG][Proc: 0]p_rhs: call_update: 3.641 [ms]
[OGL LOG][Preconditioner.H:121] Generate preconditioner BJ MaxBlockSize 1
[OGL LOG][Proc: 0]p: init_precond: 1.28 [ms]
[OGL LOG][StoppingCriterion.H:237] Creating stopping criterion with minIter 1373 frequency 13
[OGL LOG][Proc: 0]p: generate_solver: 0.002 [ms]
[OGL LOG][Proc: 0]p: solve: 5079.76 [ms]
[OGL LOG][Proc: 0]p: copy_x_back: 4.451 [ms]
[OGL LOG][lduLduBase.H:330] 
Statistics:
	Time per iteration: 2270 [mu s]
	Time per residual norm calculation: 434.000000 [mu s]
	Time per iteration and DOF: 0.084074 [ns]
	Retrieve results bandwidth 1.516000 [GByte/s]
[OGL LOG][Proc: 0]p: solve_multi_gpu: 5106.15 [ms]
BJhipGKOCG:  Solving for p, Initial residual = 0.892168, Final residual = 8.86699e-05, No Iterations 2237
[INFO] SolveP: 5159.12 [ms]
time step continuity errors : sum local = 1.14657e-08, global = 1.18223e-21, cumulative = 2.12519e-20
[INFO] ContinuityError: 27.544 [ms]
[INFO] CorrectBoundary: 1.976 [ms]
[INFO] PISOStep: 5592.79 [ms]
[INFO] MatrixAssemblyPI: 235.219 [ms]
[INFO] AdjustPhi: 12.272 [ms]
[INFO] ConstrainPressure: 0.003 [ms]
[INFO] MatrixAssemblyPII: 69.642 [ms]
[OGL LOG][Proc: 0]: global_index_init: 0.142 [ms]
[OGL LOG][Proc: 0]p_local_coeffs: call_update: 0 [ms]
[OGL LOG][Proc: 0]p_non_local_coeffs: call_update: 0 [ms]
[OGL LOG][Proc: 0]p: update_local_matrix_data: 48.239 [ms]
[OGL LOG][Proc: 0]p: update_non_local_matrix_data: 0.138 [ms]
[OGL LOG][Proc: 0]p_matrix: call_update: 2.253 [ms]
[OGL LOG][Proc: 0]p_rhs: call_update: 3.247 [ms]
[OGL LOG][Preconditioner.H:121] Generate preconditioner BJ MaxBlockSize 1
[OGL LOG][Proc: 0]p: init_precond: 1.205 [ms]
[OGL LOG][StoppingCriterion.H:237] Creating stopping criterion with minIter 1342 frequency 13
[OGL LOG][Proc: 0]p: generate_solver: 0.003 [ms]
[OGL LOG][Proc: 0]p: solve: 5150.76 [ms]
[OGL LOG][Proc: 0]p: copy_x_back: 6.114 [ms]
[OGL LOG][lduLduBase.H:330] 
Statistics:
	Time per iteration: 2263 [mu s]
	Time per residual norm calculation: 428.000000 [mu s]
	Time per iteration and DOF: 0.083815 [ns]
	Retrieve results bandwidth 1.104000 [GByte/s]
[OGL LOG][Proc: 0]p: solve_multi_gpu: 5171.11 [ms]
BJhipGKOCG:  Solving for p, Initial residual = 0.819628, Final residual = 9.80092e-05, No Iterations 2276
[INFO] SolveP: 5228.22 [ms]
time step continuity errors : sum local = 1.27794e-08, global = 1.66674e-22, cumulative = 2.14186e-20
[INFO] ContinuityError: 26.327 [ms]
[INFO] CorrectBoundary: 0.87 [ms]
[INFO] PISOStep: 5655.7 [ms]
[INFO] TimeStep: 13161.8 [ms]
ExecutionTime = 235.81 s  ClockTime = 209 s

Time = 0.002822

Courant Number mean: 0.0473172 max: 0.551506
[INFO] MatrixAssemblyU: 214.888 [ms]
DILUPBiCGStab:  Solving for Ux, Initial residual = 0.0151473, Final residual = 0.00125409, No Iterations 5
DILUPBiCGStab:  Solving for Uy, Initial residual = 0.058918, Final residual = 0.00387039, No Iterations 5
DILUPBiCGStab:  Solving for Uz, Initial residual = 0.493197, Final residual = 0.0165522, No Iterations 5
[INFO] MomentumPredictor: 1659.74 [ms]
[INFO] MatrixAssemblyPI: 241.829 [ms]
[INFO] AdjustPhi: 14.311 [ms]
[INFO] ConstrainPressure: 0.003 [ms]
[INFO] MatrixAssemblyPII: 70.12 [ms]
[OGL LOG][Proc: 0]: global_index_init: 0.053 [ms]
[OGL LOG][Proc: 0]p_local_coeffs: call_update: 0 [ms]
[OGL LOG][Proc: 0]p_non_local_coeffs: call_update: 0 [ms]
[OGL LOG][Proc: 0]p: update_local_matrix_data: 42.995 [ms]
[OGL LOG][Proc: 0]p: update_non_local_matrix_data: 0.122 [ms]
[OGL LOG][Proc: 0]p_matrix: call_update: 2.445 [ms]
[OGL LOG][Proc: 0]p_rhs: call_update: 5.104 [ms]
[OGL LOG][Preconditioner.H:121] Generate preconditioner BJ MaxBlockSize 1
[OGL LOG][Proc: 0]p: init_precond: 1.33 [ms]
[OGL LOG][StoppingCriterion.H:237] Creating stopping criterion with minIter 1365 frequency 13
[OGL LOG][Proc: 0]p: generate_solver: 0.002 [ms]
[OGL LOG][Proc: 0]p: solve: 5181.38 [ms]
[OGL LOG][Proc: 0]p: copy_x_back: 5.973 [ms]
[OGL LOG][lduLduBase.H:330] 
Statistics:
	Time per iteration: 2263 [mu s]
	Time per residual norm calculation: 437.000000 [mu s]
	Time per iteration and DOF: 0.083815 [ns]
	Retrieve results bandwidth 1.130000 [GByte/s]
[OGL LOG][Proc: 0]p: solve_multi_gpu: 5211.03 [ms]
BJhipGKOCG:  Solving for p, Initial residual = 0.906729, Final residual = 8.38812e-05, No Iterations 2289
[INFO] SolveP: 5264.2 [ms]
time step continuity errors : sum local = 1.09217e-08, global = 1.72909e-21, cumulative = 2.31477e-20
[INFO] ContinuityError: 31.461 [ms]
[INFO] CorrectBoundary: 1.08 [ms]
[INFO] PISOStep: 5702.01 [ms]
[INFO] MatrixAssemblyPI: 229.198 [ms]
[INFO] AdjustPhi: 17.719 [ms]
[INFO] ConstrainPressure: 0.003 [ms]
[INFO] MatrixAssemblyPII: 70.224 [ms]
[OGL LOG][Proc: 0]: global_index_init: 0.04 [ms]
[OGL LOG][Proc: 0]p_local_coeffs: call_update: 0 [ms]
[OGL LOG][Proc: 0]p_non_local_coeffs: call_update: 0 [ms]
[OGL LOG][Proc: 0]p: update_local_matrix_data: 53.316 [ms]
[OGL LOG][Proc: 0]p: update_non_local_matrix_data: 0.114 [ms]
[OGL LOG][Proc: 0]p_matrix: call_update: 1.955 [ms]
[OGL LOG][Proc: 0]p_rhs: call_update: 7.332 [ms]
[OGL LOG][Preconditioner.H:121] Generate preconditioner BJ MaxBlockSize 1
[OGL LOG][Proc: 0]p: init_precond: 1.071 [ms]
[OGL LOG][StoppingCriterion.H:237] Creating stopping criterion with minIter 1373 frequency 13
[OGL LOG][Proc: 0]p: generate_solver: 0.002 [ms]
[OGL LOG][Proc: 0]p: solve: 5195.72 [ms]
[OGL LOG][Proc: 0]p: copy_x_back: 5.806 [ms]
[OGL LOG][lduLduBase.H:330] 
Statistics:
	Time per iteration: 2269 [mu s]
	Time per residual norm calculation: 435.000000 [mu s]
	Time per iteration and DOF: 0.084037 [ns]
	Retrieve results bandwidth 1.162000 [GByte/s]
[OGL LOG][Proc: 0]p: solve_multi_gpu: 5221.72 [ms]
BJhipGKOCG:  Solving for p, Initial residual = 0.842654, Final residual = 7.80224e-05, No Iterations 2289
[INFO] SolveP: 5284.55 [ms]
time step continuity errors : sum local = 1.01142e-08, global = 1.27017e-21, cumulative = 2.44179e-20
[INFO] ContinuityError: 26.148 [ms]
[INFO] CorrectBoundary: 1.07 [ms]
[INFO] PISOStep: 5708.44 [ms]
[INFO] TimeStep: 13312 [ms]
ExecutionTime = 250.91 s  ClockTime = 222 s

Time = 0.002988

Courant Number mean: 0.0482956 max: 0.496274
[INFO] MatrixAssemblyU: 213.965 [ms]
DILUPBiCGStab:  Solving for Ux, Initial residual = 0.0152614, Final residual = 0.00126159, No Iterations 5
DILUPBiCGStab:  Solving for Uy, Initial residual = 0.055769, Final residual = 0.00349356, No Iterations 5
DILUPBiCGStab:  Solving for Uz, Initial residual = 0.4894, Final residual = 0.01638, No Iterations 5
[INFO] MomentumPredictor: 1668.66 [ms]
[INFO] MatrixAssemblyPI: 241.563 [ms]
[INFO] AdjustPhi: 11.343 [ms]
[INFO] ConstrainPressure: 0.003 [ms]
[INFO] MatrixAssemblyPII: 69.451 [ms]
[OGL LOG][Proc: 0]: global_index_init: 0.068 [ms]
[OGL LOG][Proc: 0]p_local_coeffs: call_update: 0 [ms]
[OGL LOG][Proc: 0]p_non_local_coeffs: call_update: 0 [ms]
[OGL LOG][Proc: 0]p: update_local_matrix_data: 43.705 [ms]
[OGL LOG][Proc: 0]p: update_non_local_matrix_data: 0.179 [ms]
[OGL LOG][Proc: 0]p_matrix: call_update: 1.994 [ms]
[OGL LOG][Proc: 0]p_rhs: call_update: 4.21 [ms]
[OGL LOG][Preconditioner.H:121] Generate preconditioner BJ MaxBlockSize 1
[OGL LOG][Proc: 0]p: init_precond: 0.921 [ms]
[OGL LOG][StoppingCriterion.H:237] Creating stopping criterion with minIter 1373 frequency 13
[OGL LOG][Proc: 0]p: generate_solver: 0.003 [ms]
[OGL LOG][Proc: 0]p: solve: 5159.85 [ms]
[OGL LOG][Proc: 0]p: copy_x_back: 4.51 [ms]
[OGL LOG][lduLduBase.H:330] 
Statistics:
	Time per iteration: 2254 [mu s]
	Time per residual norm calculation: 451.000000 [mu s]
	Time per iteration and DOF: 0.083481 [ns]
	Retrieve results bandwidth 1.496000 [GByte/s]
[OGL LOG][Proc: 0]p: solve_multi_gpu: 5183.39 [ms]
BJhipGKOCG:  Solving for p, Initial residual = 0.896553, Final residual = 8.76612e-05, No Iterations 2289
[INFO] SolveP: 5238.99 [ms]
time step continuity errors : sum local = 1.18678e-08, global = 7.14258e-23, cumulative = 2.44893e-20
[INFO] ContinuityError: 26.234 [ms]
[INFO] CorrectBoundary: 0.849 [ms]
[INFO] PISOStep: 5669.79 [ms]
[INFO] MatrixAssemblyPI: 232.962 [ms]
[INFO] AdjustPhi: 12.812 [ms]
[INFO] ConstrainPressure: 0.003 [ms]
[INFO] MatrixAssemblyPII: 66.035 [ms]
[OGL LOG][Proc: 0]: global_index_init: 0.056 [ms]
[OGL LOG][Proc: 0]p_local_coeffs: call_update: 0 [ms]
[OGL LOG][Proc: 0]p_non_local_coeffs: call_update: 0 [ms]
[OGL LOG][Proc: 0]p: update_local_matrix_data: 41.656 [ms]
[OGL LOG][Proc: 0]p: update_non_local_matrix_data: 0.117 [ms]
[OGL LOG][Proc: 0]p_matrix: call_update: 1.649 [ms]
[OGL LOG][Proc: 0]p_rhs: call_update: 3.843 [ms]
[OGL LOG][Preconditioner.H:121] Generate preconditioner BJ MaxBlockSize 1
[OGL LOG][Proc: 0]p: init_precond: 0.898 [ms]
[OGL LOG][StoppingCriterion.H:237] Creating stopping criterion with minIter 1373 frequency 15
[OGL LOG][Proc: 0]p: generate_solver: 0.003 [ms]
[OGL LOG][Proc: 0]p: solve: 5174.67 [ms]
[OGL LOG][Proc: 0]p: copy_x_back: 5.6 [ms]
[OGL LOG][lduLduBase.H:330] 
Statistics:
	Time per iteration: 2268 [mu s]
	Time per residual norm calculation: 437.000000 [mu s]
	Time per iteration and DOF: 0.084000 [ns]
	Retrieve results bandwidth 1.205000 [GByte/s]
[OGL LOG][Proc: 0]p: solve_multi_gpu: 5203.21 [ms]
BJhipGKOCG:  Solving for p, Initial residual = 0.822687, Final residual = 9.96888e-05, No Iterations 2281
[INFO] SolveP: 5254.63 [ms]
time step continuity errors : sum local = 1.35944e-08, global = -3.08523e-24, cumulative = 2.44862e-20
[INFO] ContinuityError: 25.294 [ms]
[INFO] CorrectBoundary: 1.363 [ms]
[INFO] PISOStep: 5677.9 [ms]
[INFO] TimeStep: 13257.5 [ms]
ExecutionTime = 265.96 s  ClockTime = 236 s

Time = 0.003154

Courant Number mean: 0.0493019 max: 0.563031
[INFO] MatrixAssemblyU: 211.999 [ms]
DILUPBiCGStab:  Solving for Ux, Initial residual = 0.01485, Final residual = 0.00116781, No Iterations 5
DILUPBiCGStab:  Solving for Uy, Initial residual = 0.0573403, Final residual = 0.00355314, No Iterations 5
DILUPBiCGStab:  Solving for Uz, Initial residual = 0.500209, Final residual = 0.0163388, No Iterations 5
[INFO] MomentumPredictor: 1665.51 [ms]
[INFO] MatrixAssemblyPI: 241.948 [ms]
[INFO] AdjustPhi: 11.032 [ms]
[INFO] ConstrainPressure: 0.003 [ms]
[INFO] MatrixAssemblyPII: 70.105 [ms]
[OGL LOG][Proc: 0]: global_index_init: 0.083 [ms]
[OGL LOG][Proc: 0]p_local_coeffs: call_update: 0 [ms]
[OGL LOG][Proc: 0]p_non_local_coeffs: call_update: 0 [ms]
[OGL LOG][Proc: 0]p: update_local_matrix_data: 44.499 [ms]
[OGL LOG][Proc: 0]p: update_non_local_matrix_data: 0.113 [ms]
[OGL LOG][Proc: 0]p_matrix: call_update: 1.783 [ms]
[OGL LOG][Proc: 0]p_rhs: call_update: 4.191 [ms]
[OGL LOG][Preconditioner.H:121] Generate preconditioner BJ MaxBlockSize 1
[OGL LOG][Proc: 0]p: init_precond: 1.161 [ms]
[OGL LOG][StoppingCriterion.H:237] Creating stopping criterion with minIter 1368 frequency 13
[OGL LOG][Proc: 0]p: generate_solver: 0.002 [ms]
[OGL LOG][Proc: 0]p: solve: 5154.88 [ms]
[OGL LOG][Proc: 0]p: copy_x_back: 5.228 [ms]
[OGL LOG][lduLduBase.H:330] 
Statistics:
	Time per iteration: 2252 [mu s]
	Time per residual norm calculation: 446.000000 [mu s]
	Time per iteration and DOF: 0.083407 [ns]
	Retrieve results bandwidth 1.291000 [GByte/s]
[OGL LOG][Proc: 0]p: solve_multi_gpu: 5180.84 [ms]
BJhipGKOCG:  Solving for p, Initial residual = 0.909322, Final residual = 8.42033e-05, No Iterations 2289
[INFO] SolveP: 5234.75 [ms]
time step continuity errors : sum local = 1.15431e-08, global = 1.10416e-21, cumulative = 2.55904e-20
[INFO] ContinuityError: 30.16 [ms]
[INFO] CorrectBoundary: 1.526 [ms]
[INFO] PISOStep: 5670.3 [ms]
[INFO] MatrixAssemblyPI: 234.088 [ms]
[INFO] AdjustPhi: 13.577 [ms]
[INFO] ConstrainPressure: 0.002 [ms]
[INFO] MatrixAssemblyPII: 69.326 [ms]
[OGL LOG][Proc: 0]: global_index_init: 0.181 [ms]
[OGL LOG][Proc: 0]p_local_coeffs: call_update: 0 [ms]
[OGL LOG][Proc: 0]p_non_local_coeffs: call_update: 0 [ms]
[OGL LOG][Proc: 0]p: update_local_matrix_data: 38.152 [ms]
[OGL LOG][Proc: 0]p: update_non_local_matrix_data: 0.187 [ms]
[OGL LOG][Proc: 0]p_matrix: call_update: 1.586 [ms]
[OGL LOG][Proc: 0]p_rhs: call_update: 4.238 [ms]
[OGL LOG][Preconditioner.H:121] Generate preconditioner BJ MaxBlockSize 1
[OGL LOG][Proc: 0]p: init_precond: 0.985 [ms]
[OGL LOG][StoppingCriterion.H:237] Creating stopping criterion with minIter 1373 frequency 13
[OGL LOG][Proc: 0]p: generate_solver: 0.003 [ms]
[OGL LOG][Proc: 0]p: solve: 5156.09 [ms]
[OGL LOG][Proc: 0]p: copy_x_back: 6.151 [ms]
[OGL LOG][lduLduBase.H:330] 
Statistics:
	Time per iteration: 2252 [mu s]
	Time per residual norm calculation: 444.000000 [mu s]
	Time per iteration and DOF: 0.083407 [ns]
	Retrieve results bandwidth 1.097000 [GByte/s]
[OGL LOG][Proc: 0]p: solve_multi_gpu: 5184.19 [ms]
BJhipGKOCG:  Solving for p, Initial residual = 0.842326, Final residual = 7.91272e-05, No Iterations 2289
[INFO] SolveP: 5231.66 [ms]
time step continuity errors : sum local = 1.0811e-08, global = -1.25673e-23, cumulative = 2.55778e-20
[INFO] ContinuityError: 26.181 [ms]
[INFO] CorrectBoundary: 0.852 [ms]
[INFO] PISOStep: 5657.68 [ms]
[INFO] TimeStep: 13232.4 [ms]
ExecutionTime = 280.99 s  ClockTime = 249 s

Time = 0.00332

Courant Number mean: 0.0501878 max: 0.49987
[INFO] MatrixAssemblyU: 213.489 [ms]
DILUPBiCGStab:  Solving for Ux, Initial residual = 0.0150618, Final residual = 0.00118109, No Iterations 5
DILUPBiCGStab:  Solving for Uy, Initial residual = 0.0549773, Final residual = 0.00323627, No Iterations 5
DILUPBiCGStab:  Solving for Uz, Initial residual = 0.498228, Final residual = 0.0162208, No Iterations 5
[INFO] MomentumPredictor: 1669.07 [ms]
[INFO] MatrixAssemblyPI: 242.127 [ms]
[INFO] AdjustPhi: 11.3 [ms]
[INFO] ConstrainPressure: 0.003 [ms]
[INFO] MatrixAssemblyPII: 70.379 [ms]
[OGL LOG][Proc: 0]: global_index_init: 0.036 [ms]
[OGL LOG][Proc: 0]p_local_coeffs: call_update: 0 [ms]
[OGL LOG][Proc: 0]p_non_local_coeffs: call_update: 0 [ms]
[OGL LOG][Proc: 0]p: update_local_matrix_data: 40.298 [ms]
[OGL LOG][Proc: 0]p: update_non_local_matrix_data: 0.147 [ms]
[OGL LOG][Proc: 0]p_matrix: call_update: 1.854 [ms]
[OGL LOG][Proc: 0]p_rhs: call_update: 4.679 [ms]
[OGL LOG][Preconditioner.H:121] Generate preconditioner BJ MaxBlockSize 1
[OGL LOG][Proc: 0]p: init_precond: 1.009 [ms]
[OGL LOG][StoppingCriterion.H:237] Creating stopping criterion with minIter 1373 frequency 13
[OGL LOG][Proc: 0]p: generate_solver: 0.003 [ms]
[OGL LOG][Proc: 0]p: solve: 5220.77 [ms]
[OGL LOG][Proc: 0]p: copy_x_back: 5.828 [ms]
[OGL LOG][lduLduBase.H:330] 
Statistics:
	Time per iteration: 2280 [mu s]
	Time per residual norm calculation: 444.000000 [mu s]
	Time per iteration and DOF: 0.084444 [ns]
	Retrieve results bandwidth 1.158000 [GByte/s]
[OGL LOG][Proc: 0]p: solve_multi_gpu: 5247.81 [ms]
BJhipGKOCG:  Solving for p, Initial residual = 0.901996, Final residual = 8.97272e-05, No Iterations 2289
[INFO] SolveP: 5297.02 [ms]
time step continuity errors : sum local = 1.27781e-08, global = 1.25776e-21, cumulative = 2.68356e-20
[INFO] ContinuityError: 25.709 [ms]
[INFO] CorrectBoundary: 1.342 [ms]
[INFO] PISOStep: 5728.06 [ms]
[INFO] MatrixAssemblyPI: 231.455 [ms]
[INFO] AdjustPhi: 14.451 [ms]
[INFO] ConstrainPressure: 0.003 [ms]
[INFO] MatrixAssemblyPII: 67.311 [ms]
[OGL LOG][Proc: 0]: global_index_init: 0.042 [ms]
[OGL LOG][Proc: 0]p_local_coeffs: call_update: 0 [ms]
[OGL LOG][Proc: 0]p_non_local_coeffs: call_update: 0 [ms]
[OGL LOG][Proc: 0]p: update_local_matrix_data: 39.214 [ms]
[OGL LOG][Proc: 0]p: update_non_local_matrix_data: 0.156 [ms]
[OGL LOG][Proc: 0]p_matrix: call_update: 2.194 [ms]
[OGL LOG][Proc: 0]p_rhs: call_update: 4.469 [ms]
[OGL LOG][Preconditioner.H:121] Generate preconditioner BJ MaxBlockSize 1
[OGL LOG][Proc: 0]p: init_precond: 1.212 [ms]
[OGL LOG][StoppingCriterion.H:237] Creating stopping criterion with minIter 1373 frequency 13
[OGL LOG][Proc: 0]p: generate_solver: 0.001 [ms]
[OGL LOG][Proc: 0]p: solve: 5152.01 [ms]
[OGL LOG][Proc: 0]p: copy_x_back: 4.185 [ms]
[OGL LOG][lduLduBase.H:330] 
Statistics:
	Time per iteration: 2250 [mu s]
	Time per residual norm calculation: 427.000000 [mu s]
	Time per iteration and DOF: 0.083333 [ns]
	Retrieve results bandwidth 1.612000 [GByte/s]
[OGL LOG][Proc: 0]p: solve_multi_gpu: 5179.1 [ms]
BJhipGKOCG:  Solving for p, Initial residual = 0.826908, Final residual = 8.26749e-05, No Iterations 2289
[INFO] SolveP: 5228.69 [ms]
time step continuity errors : sum local = 1.18487e-08, global = 1.23205e-22, cumulative = 2.69588e-20
[INFO] ContinuityError: 33.573 [ms]
[INFO] CorrectBoundary: 1.511 [ms]
[INFO] PISOStep: 5656.32 [ms]
[INFO] TimeStep: 13293.6 [ms]
ExecutionTime = 296.12 s  ClockTime = 262 s

End

Finalising parallel run
