/*---------------------------------------------------------------------------*\
| =========                 |                                                 |
| \\      /  F ield         | OpenFOAM: The Open Source CFD Toolbox           |
|  \\    /   O peration     | Version:  2306                                  |
|   \\  /    A nd           | Website:  www.openfoam.com                      |
|    \\/     M anipulation  |                                                 |
\*---------------------------------------------------------------------------*/
Build  : a6e826bd55-20230630 OPENFOAM=2306 version=v2306
Arch   : "LSB;label=32;scalar=64"
Exec   : icoFoam -parallel -case /tmp/lidDrivenCavity3D/workspace/1b6e327fe896dc347e80be26e75bde53/case
Date   : Dec 10 2023
Time   : 22:26:58
Host   : nla-gpu2.ianm.kit.edu
PID    : 309911
I/O    : uncollated
Case   : /tmp/lidDrivenCavity3D/workspace/1b6e327fe896dc347e80be26e75bde53/case
nProcs : 32
Hosts  :
(
    (nla-gpu2.ianm.kit.edu 32)
)
Pstream initialized with:
    floatTransfer      : false
    nProcsSimpleSum    : 0
    nonBlockingExchange: 0 (tuning: 0)
    exchange algorithm : -1
    commsType          : nonBlocking
    polling iterations : 0
trapFpe: Floating point exception trapping enabled (FOAM_SIGFPE).
fileModificationChecking : Monitoring run-time modified files using timeStampMaster (fileModificationSkew 5, maxFileModificationPolls 20)
allowSystemOperations : Allowing user-supplied system call operations

// * * * * * * * * * * * * * * * * * * * * * * * * * * * * * * * * * * * * * //
Create time

--> FOAM Warning : 
    From void* Foam::dlLibraryTable::openLibrary(const Foam::fileName&, bool)
    in file db/dynamicLibrary/dlLibraryTable/dlLibraryTable.C at line 188
    Could not load "libpetscFoam.so"
libpetscFoam.so: cannot open shared object file: No such file or directory
Create mesh for time = 0


PISO: Operating solver in PISO mode

Reading transportProperties

Reading field p

Reading field U

Reading/calculating face flux field phi


Starting time loop

Time = 0.000125

Courant Number mean: 8.02505e-18 max: 4.85723e-14
[INFO] MatrixAssemblyU: 567.586 [ms]
DILUPBiCGStab:  Solving for Ux, Initial residual = 1, Final residual = 0.0215184, No Iterations 5
DILUPBiCGStab:  Solving for Uy:  solution singularity
DILUPBiCGStab:  Solving for Uz:  solution singularity
[INFO] MomentumPredictor: 2061.33 [ms]
[INFO] MatrixAssemblyPI: 591.069 [ms]
[INFO] AdjustPhi: 26.144 [ms]
[INFO] ConstrainPressure: 0.011 [ms]
[INFO] MatrixAssemblyPII: 163.992 [ms]
GAMG:  Solving for p, Initial residual = 1, Final residual = 9.86077e-05, No Iterations 39
[INFO] SolveP: 13045.7 [ms]
time step continuity errors : sum local = 2.50758e-09, global = 1.23347e-22, cumulative = 1.23347e-22
[INFO] ContinuityError: 60.262 [ms]
[INFO] CorrectBoundary: 1.043 [ms]
[INFO] PISOStep: 14078.3 [ms]
[INFO] MatrixAssemblyPI: 556.842 [ms]
[INFO] AdjustPhi: 25.31 [ms]
[INFO] ConstrainPressure: 0.005 [ms]
[INFO] MatrixAssemblyPII: 165.52 [ms]
GAMG:  Solving for p, Initial residual = 0.822086, Final residual = 9.8383e-05, No Iterations 43
[INFO] SolveP: 13542 [ms]
time step continuity errors : sum local = 3.01688e-09, global = 3.4738e-22, cumulative = 4.70727e-22
[INFO] ContinuityError: 60.664 [ms]
[INFO] CorrectBoundary: 0.777 [ms]
[INFO] PISOStep: 14539.2 [ms]
[INFO] TimeStep: 31308.4 [ms]
ExecutionTime = 33.4 s  ClockTime = 33 s

Time = 0.00025

Courant Number mean: 0.010853 max: 0.437705
[INFO] MatrixAssemblyU: 509.494 [ms]
DILUPBiCGStab:  Solving for Ux, Initial residual = 0.108176, Final residual = 0.0135482, No Iterations 5
DILUPBiCGStab:  Solving for Uy, Initial residual = 0.484651, Final residual = 0.0533683, No Iterations 5
DILUPBiCGStab:  Solving for Uz, Initial residual = 0.988696, Final residual = 0.124952, No Iterations 5
[INFO] MomentumPredictor: 3926.34 [ms]
[INFO] MatrixAssemblyPI: 575.113 [ms]
[INFO] AdjustPhi: 24.858 [ms]
[INFO] ConstrainPressure: 0.004 [ms]
[INFO] MatrixAssemblyPII: 166.694 [ms]
GAMG:  Solving for p, Initial residual = 0.908334, Final residual = 9.96327e-05, No Iterations 35
[INFO] SolveP: 11040.5 [ms]
time step continuity errors : sum local = 7.17003e-09, global = -1.06674e-22, cumulative = 3.64053e-22
[INFO] ContinuityError: 59.801 [ms]
[INFO] CorrectBoundary: 1.549 [ms]
[INFO] PISOStep: 12054.9 [ms]
[INFO] MatrixAssemblyPI: 557.97 [ms]
[INFO] AdjustPhi: 24.793 [ms]
[INFO] ConstrainPressure: 0.005 [ms]
[INFO] MatrixAssemblyPII: 162.923 [ms]
GAMG:  Solving for p, Initial residual = 0.859173, Final residual = 8.98406e-05, No Iterations 33
[INFO] SolveP: 10427.4 [ms]
time step continuity errors : sum local = 6.57782e-09, global = 1.52364e-22, cumulative = 5.16418e-22
[INFO] ContinuityError: 59.969 [ms]
[INFO] CorrectBoundary: 1.084 [ms]
[INFO] PISOStep: 11423.9 [ms]
[INFO] TimeStep: 27975.7 [ms]
ExecutionTime = 61.25 s  ClockTime = 61 s

Time = 0.000375

Courant Number mean: 0.0169397 max: 0.511597
[INFO] MatrixAssemblyU: 510.251 [ms]
DILUPBiCGStab:  Solving for Ux, Initial residual = 0.053693, Final residual = 0.00548726, No Iterations 5
DILUPBiCGStab:  Solving for Uy, Initial residual = 0.262214, Final residual = 0.026762, No Iterations 5
DILUPBiCGStab:  Solving for Uz, Initial residual = 0.880962, Final residual = 0.0996002, No Iterations 5
[INFO] MomentumPredictor: 3932.48 [ms]
[INFO] MatrixAssemblyPI: 572.402 [ms]
[INFO] AdjustPhi: 28.012 [ms]
[INFO] ConstrainPressure: 0.003 [ms]
[INFO] MatrixAssemblyPII: 166.517 [ms]
GAMG:  Solving for p, Initial residual = 0.941645, Final residual = 9.87473e-05, No Iterations 33
[INFO] SolveP: 10406.6 [ms]
time step continuity errors : sum local = 8.87591e-09, global = 3.35066e-22, cumulative = 8.51484e-22
[INFO] ContinuityError: 58.424 [ms]
[INFO] CorrectBoundary: 1.127 [ms]
[INFO] PISOStep: 11421.1 [ms]
[INFO] MatrixAssemblyPI: 558.846 [ms]
[INFO] AdjustPhi: 25.538 [ms]
[INFO] ConstrainPressure: 0.003 [ms]
[INFO] MatrixAssemblyPII: 166.707 [ms]
GAMG:  Solving for p, Initial residual = 0.909137, Final residual = 8.90427e-05, No Iterations 30
[INFO] SolveP: 9482.19 [ms]
time step continuity errors : sum local = 7.95384e-09, global = 5.92856e-22, cumulative = 1.44434e-21
[INFO] ContinuityError: 59.896 [ms]
[INFO] CorrectBoundary: 0.688 [ms]
[INFO] PISOStep: 10481.2 [ms]
[INFO] TimeStep: 26406.1 [ms]
ExecutionTime = 87.53 s  ClockTime = 88 s

Time = 0.0005

Courant Number mean: 0.0205485 max: 0.477631
[INFO] MatrixAssemblyU: 499.893 [ms]
DILUPBiCGStab:  Solving for Ux, Initial residual = 0.0416983, Final residual = 0.00508643, No Iterations 5
DILUPBiCGStab:  Solving for Uy, Initial residual = 0.214444, Final residual = 0.0244183, No Iterations 5
DILUPBiCGStab:  Solving for Uz, Initial residual = 0.816423, Final residual = 0.0835648, No Iterations 5
[INFO] MomentumPredictor: 3940.07 [ms]
[INFO] MatrixAssemblyPI: 574.768 [ms]
[INFO] AdjustPhi: 25.585 [ms]
[INFO] ConstrainPressure: 0.005 [ms]
[INFO] MatrixAssemblyPII: 166.232 [ms]
GAMG:  Solving for p, Initial residual = 0.938461, Final residual = 9.23977e-05, No Iterations 27
[INFO] SolveP: 8550.75 [ms]
time step continuity errors : sum local = 1.01713e-08, global = 5.80668e-22, cumulative = 2.02501e-21
[INFO] ContinuityError: 59.683 [ms]
[INFO] CorrectBoundary: 1.003 [ms]
[INFO] PISOStep: 9565.54 [ms]
[INFO] MatrixAssemblyPI: 557.186 [ms]
[INFO] AdjustPhi: 25.349 [ms]
[INFO] ConstrainPressure: 0.003 [ms]
[INFO] MatrixAssemblyPII: 166.421 [ms]
GAMG:  Solving for p, Initial residual = 0.880771, Final residual = 9.29315e-05, No Iterations 27
[INFO] SolveP: 8549.16 [ms]
time step continuity errors : sum local = 1.04214e-08, global = 6.79064e-22, cumulative = 2.70407e-21
[INFO] ContinuityError: 58.89 [ms]
[INFO] CorrectBoundary: 1.866 [ms]
[INFO] PISOStep: 9545.38 [ms]
[INFO] TimeStep: 23612 [ms]
ExecutionTime = 111.03 s  ClockTime = 111 s

Time = 0.000625

Courant Number mean: 0.0236215 max: 0.556304
[INFO] MatrixAssemblyU: 502.554 [ms]
DILUPBiCGStab:  Solving for Ux, Initial residual = 0.037674, Final residual = 0.00460994, No Iterations 5
DILUPBiCGStab:  Solving for Uy, Initial residual = 0.185998, Final residual = 0.020359, No Iterations 5
DILUPBiCGStab:  Solving for Uz, Initial residual = 0.821064, Final residual = 0.0859057, No Iterations 5
[INFO] MomentumPredictor: 3934.83 [ms]
[INFO] MatrixAssemblyPI: 573.839 [ms]
[INFO] AdjustPhi: 25.614 [ms]
[INFO] ConstrainPressure: 0.004 [ms]
[INFO] MatrixAssemblyPII: 166.72 [ms]
GAMG:  Solving for p, Initial residual = 0.954544, Final residual = 9.40847e-05, No Iterations 48
[INFO] SolveP: 15067.1 [ms]
time step continuity errors : sum local = 1.18635e-08, global = 2.07028e-22, cumulative = 2.9111e-21
[INFO] ContinuityError: 60.024 [ms]
[INFO] CorrectBoundary: 0.807 [ms]
[INFO] PISOStep: 16080.7 [ms]
[INFO] MatrixAssemblyPI: 558.005 [ms]
[INFO] AdjustPhi: 25.419 [ms]
[INFO] ConstrainPressure: 0.005 [ms]
[INFO] MatrixAssemblyPII: 166.361 [ms]
GAMG:  Solving for p, Initial residual = 0.915455, Final residual = 5.32854e-05, No Iterations 29
[INFO] SolveP: 9177.15 [ms]
time step continuity errors : sum local = 6.67221e-09, global = -5.32433e-23, cumulative = 2.85786e-21
[INFO] ContinuityError: 59.117 [ms]
[INFO] CorrectBoundary: 1.156 [ms]
[INFO] PISOStep: 10174.1 [ms]
[INFO] TimeStep: 30753.2 [ms]
ExecutionTime = 141.65 s  ClockTime = 142 s

Time = 0.00075

Courant Number mean: 0.0259538 max: 0.483522
[INFO] MatrixAssemblyU: 509.345 [ms]
DILUPBiCGStab:  Solving for Ux, Initial residual = 0.035434, Final residual = 0.00439558, No Iterations 5
DILUPBiCGStab:  Solving for Uy, Initial residual = 0.172412, Final residual = 0.0175101, No Iterations 5
DILUPBiCGStab:  Solving for Uz, Initial residual = 0.775281, Final residual = 0.0862245, No Iterations 5
[INFO] MomentumPredictor: 3925.6 [ms]
[INFO] MatrixAssemblyPI: 574.609 [ms]
[INFO] AdjustPhi: 25.461 [ms]
[INFO] ConstrainPressure: 0.006 [ms]
[INFO] MatrixAssemblyPII: 165.108 [ms]
GAMG:  Solving for p, Initial residual = 0.951629, Final residual = 9.60483e-05, No Iterations 29
[INFO] SolveP: 9156.83 [ms]
time step continuity errors : sum local = 1.39584e-08, global = 1.9356e-22, cumulative = 3.05142e-21
[INFO] ContinuityError: 59.986 [ms]
[INFO] CorrectBoundary: 1.172 [ms]
[INFO] PISOStep: 10170.9 [ms]
[INFO] MatrixAssemblyPI: 558.161 [ms]
[INFO] AdjustPhi: 25.485 [ms]
[INFO] ConstrainPressure: 0.005 [ms]
[INFO] MatrixAssemblyPII: 163.622 [ms]
GAMG:  Solving for p, Initial residual = 0.891573, Final residual = 8.28961e-05, No Iterations 41
[INFO] SolveP: 12889.8 [ms]
time step continuity errors : sum local = 1.22405e-08, global = 4.73974e-22, cumulative = 3.52539e-21
[INFO] ContinuityError: 59.179 [ms]
[INFO] CorrectBoundary: 1.028 [ms]
[INFO] PISOStep: 13887.2 [ms]
[INFO] TimeStep: 28554.4 [ms]
ExecutionTime = 170.07 s  ClockTime = 170 s

Time = 0.000875

Courant Number mean: 0.0281518 max: 0.612851
[INFO] MatrixAssemblyU: 506.73 [ms]
DILUPBiCGStab:  Solving for Ux, Initial residual = 0.0351393, Final residual = 0.00418356, No Iterations 5
DILUPBiCGStab:  Solving for Uy, Initial residual = 0.176884, Final residual = 0.0165175, No Iterations 5
DILUPBiCGStab:  Solving for Uz, Initial residual = 0.803635, Final residual = 0.0965716, No Iterations 5
[INFO] MomentumPredictor: 3932.5 [ms]
[INFO] MatrixAssemblyPI: 575.283 [ms]
[INFO] AdjustPhi: 24.43 [ms]
[INFO] ConstrainPressure: 0.004 [ms]
[INFO] MatrixAssemblyPII: 166.55 [ms]
GAMG:  Solving for p, Initial residual = 0.962498, Final residual = 7.00292e-05, No Iterations 36
[INFO] SolveP: 11329.5 [ms]
time step continuity errors : sum local = 1.15391e-08, global = 5.20297e-22, cumulative = 4.04569e-21
[INFO] ContinuityError: 58.974 [ms]
[INFO] CorrectBoundary: 1.515 [ms]
[INFO] PISOStep: 12342.9 [ms]
[INFO] MatrixAssemblyPI: 557.09 [ms]
[INFO] AdjustPhi: 25.528 [ms]
[INFO] ConstrainPressure: 0.003 [ms]
[INFO] MatrixAssemblyPII: 163.152 [ms]
GAMG:  Solving for p, Initial residual = 0.917926, Final residual = 8.21417e-05, No Iterations 31
[INFO] SolveP: 9793.25 [ms]
time step continuity errors : sum local = 1.34676e-08, global = 8.8423e-22, cumulative = 4.92992e-21
[INFO] ContinuityError: 59.192 [ms]
[INFO] CorrectBoundary: 0.858 [ms]
[INFO] PISOStep: 10790 [ms]
[INFO] TimeStep: 27633.5 [ms]
ExecutionTime = 197.57 s  ClockTime = 198 s

Time = 0.001

Courant Number mean: 0.0298956 max: 0.492224
[INFO] MatrixAssemblyU: 508.93 [ms]
DILUPBiCGStab:  Solving for Ux, Initial residual = 0.0362307, Final residual = 0.004038, No Iterations 5
DILUPBiCGStab:  Solving for Uy, Initial residual = 0.170895, Final residual = 0.0144802, No Iterations 5
DILUPBiCGStab:  Solving for Uz, Initial residual = 0.772744, Final residual = 0.087305, No Iterations 5
[INFO] MomentumPredictor: 3930.35 [ms]
[INFO] MatrixAssemblyPI: 574.544 [ms]
[INFO] AdjustPhi: 25.335 [ms]
[INFO] ConstrainPressure: 0.006 [ms]
[INFO] MatrixAssemblyPII: 166.546 [ms]
GAMG:  Solving for p, Initial residual = 0.96042, Final residual = 9.84326e-05, No Iterations 33
[INFO] SolveP: 10399.7 [ms]
time step continuity errors : sum local = 1.86578e-08, global = -1.26145e-22, cumulative = 4.80377e-21
[INFO] ContinuityError: 59.463 [ms]
[INFO] CorrectBoundary: 2.661 [ms]
[INFO] PISOStep: 11413.2 [ms]
[INFO] MatrixAssemblyPI: 558.451 [ms]
[INFO] AdjustPhi: 24.828 [ms]
[INFO] ConstrainPressure: 0.006 [ms]
[INFO] MatrixAssemblyPII: 164.553 [ms]
GAMG:  Solving for p, Initial residual = 0.898544, Final residual = 8.5118e-05, No Iterations 47
[INFO] SolveP: 14763.3 [ms]
time step continuity errors : sum local = 1.63651e-08, global = -8.67247e-23, cumulative = 4.71705e-21
[INFO] ContinuityError: 58.857 [ms]
[INFO] CorrectBoundary: 0.903 [ms]
[INFO] PISOStep: 15760.4 [ms]
[INFO] TimeStep: 31673.9 [ms]
ExecutionTime = 229.1 s  ClockTime = 230 s

Time = 0.001125

Courant Number mean: 0.0317025 max: 0.696923
[INFO] MatrixAssemblyU: 509.191 [ms]
DILUPBiCGStab:  Solving for Ux, Initial residual = 0.0375722, Final residual = 0.0038372, No Iterations 5
DILUPBiCGStab:  Solving for Uy, Initial residual = 0.187851, Final residual = 0.0148617, No Iterations 5
DILUPBiCGStab:  Solving for Uz, Initial residual = 0.790576, Final residual = 0.0912402, No Iterations 5
[INFO] MomentumPredictor: 3928.55 [ms]
[INFO] MatrixAssemblyPI: 575.296 [ms]
[INFO] AdjustPhi: 25.301 [ms]
[INFO] ConstrainPressure: 0.006 [ms]
[INFO] MatrixAssemblyPII: 165.189 [ms]
GAMG:  Solving for p, Initial residual = 0.968274, Final residual = 8.83342e-05, No Iterations 37
[INFO] SolveP: 11653.7 [ms]
time step continuity errors : sum local = 1.91925e-08, global = 3.31622e-22, cumulative = 5.04867e-21
[INFO] ContinuityError: 59.261 [ms]
[INFO] CorrectBoundary: 1.024 [ms]
[INFO] PISOStep: 12668.2 [ms]
[INFO] MatrixAssemblyPI: 558.324 [ms]
[INFO] AdjustPhi: 24.007 [ms]
[INFO] ConstrainPressure: 0.005 [ms]
[INFO] MatrixAssemblyPII: 166.128 [ms]
GAMG:  Solving for p, Initial residual = 0.919062, Final residual = 9.04884e-05, No Iterations 39
[INFO] SolveP: 12272.5 [ms]
time step continuity errors : sum local = 1.9632e-08, global = 6.48665e-22, cumulative = 5.69733e-21
[INFO] ContinuityError: 58.977 [ms]
[INFO] CorrectBoundary: 1.111 [ms]
[INFO] PISOStep: 13268.6 [ms]
[INFO] TimeStep: 30435.6 [ms]
ExecutionTime = 259.4 s  ClockTime = 260 s

Time = 0.00125

Courant Number mean: 0.033113 max: 0.506817
[INFO] MatrixAssemblyU: 502.163 [ms]
DILUPBiCGStab:  Solving for Ux, Initial residual = 0.0409355, Final residual = 0.00389661, No Iterations 5
DILUPBiCGStab:  Solving for Uy, Initial residual = 0.187206, Final residual = 0.0133315, No Iterations 5
DILUPBiCGStab:  Solving for Uz, Initial residual = 0.779029, Final residual = 0.0868027, No Iterations 5
[INFO] MomentumPredictor: 3939.69 [ms]
[INFO] MatrixAssemblyPI: 575.092 [ms]
[INFO] AdjustPhi: 25.233 [ms]
[INFO] ConstrainPressure: 0.003 [ms]
[INFO] MatrixAssemblyPII: 166.407 [ms]
GAMG:  Solving for p, Initial residual = 0.967665, Final residual = 9.89318e-05, No Iterations 32
[INFO] SolveP: 10092.8 [ms]
time step continuity errors : sum local = 2.50931e-08, global = 1.14637e-21, cumulative = 6.8437e-21
[INFO] ContinuityError: 59.423 [ms]
[INFO] CorrectBoundary: 0.976 [ms]
[INFO] PISOStep: 11106.7 [ms]
[INFO] MatrixAssemblyPI: 558.207 [ms]
[INFO] AdjustPhi: 25.191 [ms]
[INFO] ConstrainPressure: 0.005 [ms]
[INFO] MatrixAssemblyPII: 166.369 [ms]
GAMG:  Solving for p, Initial residual = 0.904255, Final residual = 9.80277e-05, No Iterations 35
[INFO] SolveP: 11030.6 [ms]
time step continuity errors : sum local = 2.52317e-08, global = 4.18734e-22, cumulative = 7.26244e-21
[INFO] ContinuityError: 59.582 [ms]
[INFO] CorrectBoundary: 0.982 [ms]
[INFO] PISOStep: 12027.9 [ms]
[INFO] TimeStep: 27637.7 [ms]
ExecutionTime = 286.91 s  ClockTime = 288 s

Time = 0.001375

Courant Number mean: 0.0347179 max: 0.827293
[INFO] MatrixAssemblyU: 502.338 [ms]
DILUPBiCGStab:  Solving for Ux, Initial residual = 0.0438743, Final residual = 0.0037694, No Iterations 5
DILUPBiCGStab:  Solving for Uy, Initial residual = 0.211502, Final residual = 0.0144317, No Iterations 5
DILUPBiCGStab:  Solving for Uz, Initial residual = 0.789959, Final residual = 0.0860847, No Iterations 5
[INFO] MomentumPredictor: 3933.96 [ms]
[INFO] MatrixAssemblyPI: 574.585 [ms]
[INFO] AdjustPhi: 25.464 [ms]
[INFO] ConstrainPressure: 0.006 [ms]
[INFO] MatrixAssemblyPII: 166.546 [ms]
GAMG:  Solving for p, Initial residual = 0.973222, Final residual = 6.01931e-05, No Iterations 54
[INFO] SolveP: 16915.3 [ms]
time step continuity errors : sum local = 1.77128e-08, global = 4.98118e-23, cumulative = 7.31225e-21
[INFO] ContinuityError: 60.14 [ms]
[INFO] CorrectBoundary: 1.806 [ms]
[INFO] PISOStep: 17928.9 [ms]
[INFO] MatrixAssemblyPI: 558.63 [ms]
[INFO] AdjustPhi: 25.054 [ms]
[INFO] ConstrainPressure: 0.005 [ms]
[INFO] MatrixAssemblyPII: 166.613 [ms]
GAMG:  Solving for p, Initial residual = 0.919951, Final residual = 5.70048e-05, No Iterations 44
[INFO] SolveP: 13824.3 [ms]
time step continuity errors : sum local = 1.67919e-08, global = -8.26147e-23, cumulative = 7.22963e-21
[INFO] ContinuityError: 58.671 [ms]
[INFO] CorrectBoundary: 0.723 [ms]
[INFO] PISOStep: 14822.3 [ms]
[INFO] TimeStep: 37248.5 [ms]
ExecutionTime = 323.99 s  ClockTime = 325 s

Time = 0.0015

Courant Number mean: 0.0359146 max: 0.601198
[INFO] MatrixAssemblyU: 505.833 [ms]
DILUPBiCGStab:  Solving for Ux, Initial residual = 0.0492768, Final residual = 0.00395035, No Iterations 5
DILUPBiCGStab:  Solving for Uy, Initial residual = 0.215902, Final residual = 0.0132998, No Iterations 5
DILUPBiCGStab:  Solving for Uz, Initial residual = 0.76616, Final residual = 0.066172, No Iterations 5
[INFO] MomentumPredictor: 3933.51 [ms]
[INFO] MatrixAssemblyPI: 574.726 [ms]
[INFO] AdjustPhi: 24.756 [ms]
[INFO] ConstrainPressure: 0.004 [ms]
[INFO] MatrixAssemblyPII: 162.406 [ms]
GAMG:  Solving for p, Initial residual = 0.973425, Final residual = 9.28685e-05, No Iterations 40
[INFO] SolveP: 12572.6 [ms]
time step continuity errors : sum local = 3.19662e-08, global = 6.35068e-22, cumulative = 7.8647e-21
[INFO] ContinuityError: 59.936 [ms]
[INFO] CorrectBoundary: 2.104 [ms]
[INFO] PISOStep: 13585.4 [ms]
[INFO] MatrixAssemblyPI: 559.229 [ms]
[INFO] AdjustPhi: 24.075 [ms]
[INFO] ConstrainPressure: 0.005 [ms]
[INFO] MatrixAssemblyPII: 159.924 [ms]
GAMG:  Solving for p, Initial residual = 0.908958, Final residual = 9.65744e-05, No Iterations 37
[INFO] SolveP: 11653.9 [ms]
time step continuity errors : sum local = 3.37213e-08, global = 1.80418e-21, cumulative = 9.66889e-21
[INFO] ContinuityError: 59.256 [ms]
[INFO] CorrectBoundary: 0.938 [ms]
[INFO] PISOStep: 12651.9 [ms]
[INFO] TimeStep: 30737.5 [ms]
ExecutionTime = 354.58 s  ClockTime = 356 s

Time = 0.001625

Courant Number mean: 0.0374104 max: 1.15283
[INFO] MatrixAssemblyU: 509.422 [ms]
DILUPBiCGStab:  Solving for Ux, Initial residual = 0.054095, Final residual = 0.00394824, No Iterations 5
DILUPBiCGStab:  Solving for Uy, Initial residual = 0.244864, Final residual = 0.0147179, No Iterations 5
DILUPBiCGStab:  Solving for Uz, Initial residual = 0.787498, Final residual = 0.0799028, No Iterations 5
[INFO] MomentumPredictor: 3929.97 [ms]
[INFO] MatrixAssemblyPI: 574.995 [ms]
[INFO] AdjustPhi: 25.128 [ms]
[INFO] ConstrainPressure: 0.003 [ms]
[INFO] MatrixAssemblyPII: 166.653 [ms]
GAMG:  Solving for p, Initial residual = 0.977014, Final residual = 8.58181e-05, No Iterations 50
[INFO] SolveP: 15672.8 [ms]
time step continuity errors : sum local = 3.46887e-08, global = -2.66662e-22, cumulative = 9.40222e-21
[INFO] ContinuityError: 59.612 [ms]
[INFO] CorrectBoundary: 1.424 [ms]
[INFO] PISOStep: 16687.1 [ms]
[INFO] MatrixAssemblyPI: 558.143 [ms]
[INFO] AdjustPhi: 24.695 [ms]
[INFO] ConstrainPressure: 0.005 [ms]
[INFO] MatrixAssemblyPII: 162.103 [ms]
GAMG:  Solving for p, Initial residual = 0.920725, Final residual = 4.44049e-05, No Iterations 41
[INFO] SolveP: 12893.2 [ms]
time step continuity errors : sum local = 1.80132e-08, global = 8.48842e-22, cumulative = 1.02511e-20
[INFO] ContinuityError: 60.011 [ms]
[INFO] CorrectBoundary: 1.087 [ms]
[INFO] PISOStep: 13890.3 [ms]
[INFO] TimeStep: 35077.7 [ms]
ExecutionTime = 389.49 s  ClockTime = 391 s

Time = 0.00175

Courant Number mean: 0.0384767 max: 1.02783
[INFO] MatrixAssemblyU: 510.396 [ms]
DILUPBiCGStab:  Solving for Ux, Initial residual = 0.0620412, Final residual = 0.00421852, No Iterations 5
DILUPBiCGStab:  Solving for Uy, Initial residual = 0.255485, Final residual = 0.0141376, No Iterations 5
DILUPBiCGStab:  Solving for Uz, Initial residual = 0.77635, Final residual = 0.066555, No Iterations 5
[INFO] MomentumPredictor: 3925.45 [ms]
[INFO] MatrixAssemblyPI: 575.247 [ms]
[INFO] AdjustPhi: 24.726 [ms]
[INFO] ConstrainPressure: 0.005 [ms]
[INFO] MatrixAssemblyPII: 166.588 [ms]
GAMG:  Solving for p, Initial residual = 0.977664, Final residual = 8.41512e-05, No Iterations 56
[INFO] SolveP: 17526.3 [ms]
time step continuity errors : sum local = 4.00405e-08, global = 7.08584e-22, cumulative = 1.09597e-20
[INFO] ContinuityError: 59.549 [ms]
[INFO] CorrectBoundary: 1.666 [ms]
[INFO] PISOStep: 18540 [ms]
[INFO] MatrixAssemblyPI: 558.736 [ms]
[INFO] AdjustPhi: 23.767 [ms]
[INFO] ConstrainPressure: 0.005 [ms]
[INFO] MatrixAssemblyPII: 163.662 [ms]
GAMG:  Solving for p, Initial residual = 0.913068, Final residual = 9.57732e-05, No Iterations 37
[INFO] SolveP: 11650.5 [ms]
time step continuity errors : sum local = 4.6223e-08, global = 8.41915e-22, cumulative = 1.18016e-20
[INFO] ContinuityError: 59.346 [ms]
[INFO] CorrectBoundary: 0.912 [ms]
[INFO] PISOStep: 12647.2 [ms]
[INFO] TimeStep: 35683.9 [ms]
ExecutionTime = 425.01 s  ClockTime = 427 s

Time = 0.001875

Courant Number mean: 0.0399428 max: 1.69117
[INFO] MatrixAssemblyU: 505.95 [ms]
DILUPBiCGStab:  Solving for Ux, Initial residual = 0.0692217, Final residual = 0.00437174, No Iterations 5
DILUPBiCGStab:  Solving for Uy, Initial residual = 0.28796, Final residual = 0.0155806, No Iterations 5
DILUPBiCGStab:  Solving for Uz, Initial residual = 0.786876, Final residual = 0.0728083, No Iterations 5
[INFO] MomentumPredictor: 3937.93 [ms]
[INFO] MatrixAssemblyPI: 574.691 [ms]
[INFO] AdjustPhi: 25.349 [ms]
[INFO] ConstrainPressure: 0.005 [ms]
[INFO] MatrixAssemblyPII: 166.443 [ms]
GAMG:  Solving for p, Initial residual = 0.979776, Final residual = 9.74202e-05, No Iterations 43
[INFO] SolveP: 13495.5 [ms]
time step continuity errors : sum local = 5.47216e-08, global = 1.47714e-21, cumulative = 1.32787e-20
[INFO] ContinuityError: 59.116 [ms]
[INFO] CorrectBoundary: 1.706 [ms]
[INFO] PISOStep: 14509.6 [ms]
[INFO] MatrixAssemblyPI: 557.494 [ms]
[INFO] AdjustPhi: 25.49 [ms]
[INFO] ConstrainPressure: 0.006 [ms]
[INFO] MatrixAssemblyPII: 163 [ms]
GAMG:  Solving for p, Initial residual = 0.921137, Final residual = 6.56721e-05, No Iterations 50
[INFO] SolveP: 15679.3 [ms]
time step continuity errors : sum local = 3.70172e-08, global = 9.48156e-22, cumulative = 1.42269e-20
[INFO] ContinuityError: 59.581 [ms]
[INFO] CorrectBoundary: 0.758 [ms]
[INFO] PISOStep: 16676.7 [ms]
[INFO] TimeStep: 35691.3 [ms]
ExecutionTime = 460.54 s  ClockTime = 462 s

Time = 0.002

Courant Number mean: 0.0409415 max: 1.72856
[INFO] MatrixAssemblyU: 507.277 [ms]
DILUPBiCGStab:  Solving for Ux, Initial residual = 0.0806316, Final residual = 0.00477814, No Iterations 5
DILUPBiCGStab:  Solving for Uy, Initial residual = 0.304993, Final residual = 0.0155753, No Iterations 5
DILUPBiCGStab:  Solving for Uz, Initial residual = 0.783736, Final residual = 0.0672517, No Iterations 5
[INFO] MomentumPredictor: 3934.07 [ms]
[INFO] MatrixAssemblyPI: 574.788 [ms]
[INFO] AdjustPhi: 25.373 [ms]
[INFO] ConstrainPressure: 0.006 [ms]
[INFO] MatrixAssemblyPII: 166.366 [ms]
GAMG:  Solving for p, Initial residual = 0.980903, Final residual = 8.20046e-05, No Iterations 44
[INFO] SolveP: 13808.5 [ms]
time step continuity errors : sum local = 5.45313e-08, global = -9.53636e-22, cumulative = 1.32732e-20
[INFO] ContinuityError: 58.94 [ms]
[INFO] CorrectBoundary: 1.059 [ms]
[INFO] PISOStep: 14822.3 [ms]
[INFO] MatrixAssemblyPI: 557.315 [ms]
[INFO] AdjustPhi: 25.37 [ms]
[INFO] ConstrainPressure: 0.008 [ms]
[INFO] MatrixAssemblyPII: 162.544 [ms]
GAMG:  Solving for p, Initial residual = 0.916176, Final residual = 9.32728e-05, No Iterations 38
[INFO] SolveP: 11972 [ms]
time step continuity errors : sum local = 6.26584e-08, global = 1.59873e-21, cumulative = 1.4872e-20
[INFO] ContinuityError: 59.707 [ms]
[INFO] CorrectBoundary: 1.106 [ms]
[INFO] PISOStep: 12968.8 [ms]
[INFO] TimeStep: 32293.6 [ms]
ExecutionTime = 492.69 s  ClockTime = 495 s

Time = 0.002125

Courant Number mean: 0.0424517 max: 2.57612
[INFO] MatrixAssemblyU: 507.916 [ms]
DILUPBiCGStab:  Solving for Ux, Initial residual = 0.0910517, Final residual = 0.00515102, No Iterations 5
DILUPBiCGStab:  Solving for Uy, Initial residual = 0.341458, Final residual = 0.0172984, No Iterations 5
DILUPBiCGStab:  Solving for Uz, Initial residual = 0.787621, Final residual = 0.0685716, No Iterations 5
[INFO] MomentumPredictor: 3931.27 [ms]
[INFO] MatrixAssemblyPI: 575.13 [ms]
[INFO] AdjustPhi: 24.937 [ms]
[INFO] ConstrainPressure: 0.005 [ms]
[INFO] MatrixAssemblyPII: 166.169 [ms]
GAMG:  Solving for p, Initial residual = 0.981971, Final residual = 7.06905e-05, No Iterations 40
[INFO] SolveP: 12581.3 [ms]
time step continuity errors : sum local = 5.59529e-08, global = 1.32111e-21, cumulative = 1.61931e-20
[INFO] ContinuityError: 59.404 [ms]
[INFO] CorrectBoundary: 0.904 [ms]
[INFO] PISOStep: 13595.4 [ms]
[INFO] MatrixAssemblyPI: 557.817 [ms]
[INFO] AdjustPhi: 25.293 [ms]
[INFO] ConstrainPressure: 0.006 [ms]
[INFO] MatrixAssemblyPII: 165.791 [ms]
GAMG:  Solving for p, Initial residual = 0.921227, Final residual = 9.66945e-05, No Iterations 33
[INFO] SolveP: 10411.3 [ms]
time step continuity errors : sum local = 7.68592e-08, global = 7.27919e-23, cumulative = 1.62659e-20
[INFO] ContinuityError: 59.413 [ms]
[INFO] CorrectBoundary: 0.972 [ms]
[INFO] PISOStep: 11408.7 [ms]
[INFO] TimeStep: 29504.1 [ms]
ExecutionTime = 522.05 s  ClockTime = 524 s

Time = 0.00225

Courant Number mean: 0.0434617 max: 2.87693
[INFO] MatrixAssemblyU: 504.643 [ms]
DILUPBiCGStab:  Solving for Ux, Initial residual = 0.107387, Final residual = 0.00573246, No Iterations 5
DILUPBiCGStab:  Solving for Uy, Initial residual = 0.364025, Final residual = 0.0175294, No Iterations 5
DILUPBiCGStab:  Solving for Uz, Initial residual = 0.784311, Final residual = 0.0636608, No Iterations 5
[INFO] MomentumPredictor: 3935.39 [ms]
[INFO] MatrixAssemblyPI: 574.423 [ms]
[INFO] AdjustPhi: 25.052 [ms]
[INFO] ConstrainPressure: 0.003 [ms]
[INFO] MatrixAssemblyPII: 163.643 [ms]
GAMG:  Solving for p, Initial residual = 0.983164, Final residual = 7.82474e-05, No Iterations 38
[INFO] SolveP: 11952.6 [ms]
time step continuity errors : sum local = 7.39465e-08, global = 8.89529e-22, cumulative = 1.71554e-20
[INFO] ContinuityError: 59.066 [ms]
[INFO] CorrectBoundary: 1.157 [ms]
[INFO] PISOStep: 12966.1 [ms]
[INFO] MatrixAssemblyPI: 557.607 [ms]
[INFO] AdjustPhi: 25.37 [ms]
[INFO] ConstrainPressure: 0.004 [ms]
[INFO] MatrixAssemblyPII: 166.035 [ms]
GAMG:  Solving for p, Initial residual = 0.918266, Final residual = 9.7251e-05, No Iterations 42
[INFO] SolveP: 13212 [ms]
time step continuity errors : sum local = 9.26177e-08, global = 9.21893e-22, cumulative = 1.80773e-20
[INFO] ContinuityError: 60.029 [ms]
[INFO] CorrectBoundary: 1.074 [ms]
[INFO] PISOStep: 14210.1 [ms]
[INFO] TimeStep: 31677.4 [ms]
ExecutionTime = 553.58 s  ClockTime = 556 s

Time = 0.002375

Courant Number mean: 0.0450983 max: 4.00638
[INFO] MatrixAssemblyU: 507.949 [ms]
DILUPBiCGStab:  Solving for Ux, Initial residual = 0.121518, Final residual = 0.0062572, No Iterations 5
DILUPBiCGStab:  Solving for Uy, Initial residual = 0.401227, Final residual = 0.0191361, No Iterations 5
DILUPBiCGStab:  Solving for Uz, Initial residual = 0.781104, Final residual = 0.058469, No Iterations 5
[INFO] MomentumPredictor: 3933.14 [ms]
[INFO] MatrixAssemblyPI: 574.46 [ms]
[INFO] AdjustPhi: 25.642 [ms]
[INFO] ConstrainPressure: 0.003 [ms]
[INFO] MatrixAssemblyPII: 166.702 [ms]
GAMG:  Solving for p, Initial residual = 0.983586, Final residual = 8.0273e-05, No Iterations 58
[INFO] SolveP: 18150.5 [ms]
time step continuity errors : sum local = 9.08414e-08, global = 1.18949e-21, cumulative = 1.92668e-20
[INFO] ContinuityError: 59.297 [ms]
[INFO] CorrectBoundary: 0.797 [ms]
[INFO] PISOStep: 19164.5 [ms]
[INFO] MatrixAssemblyPI: 557.496 [ms]
[INFO] AdjustPhi: 25.873 [ms]
[INFO] ConstrainPressure: 0.007 [ms]
[INFO] MatrixAssemblyPII: 165.97 [ms]
GAMG:  Solving for p, Initial residual = 0.921343, Final residual = 8.03248e-05, No Iterations 42
[INFO] SolveP: 13203.3 [ms]
time step continuity errors : sum local = 9.11678e-08, global = 3.57756e-22, cumulative = 1.96245e-20
[INFO] ContinuityError: 59.385 [ms]
[INFO] CorrectBoundary: 0.792 [ms]
[INFO] PISOStep: 14200.8 [ms]
[INFO] TimeStep: 37867.1 [ms]
ExecutionTime = 591.27 s  ClockTime = 594 s

Time = 0.0025

Courant Number mean: 0.0462162 max: 4.73853
[INFO] MatrixAssemblyU: 506.318 [ms]
DILUPBiCGStab:  Solving for Ux, Initial residual = 0.144349, Final residual = 0.00708975, No Iterations 5
DILUPBiCGStab:  Solving for Uy, Initial residual = 0.427577, Final residual = 0.0195647, No Iterations 5
DILUPBiCGStab:  Solving for Uz, Initial residual = 0.780499, Final residual = 0.0577693, No Iterations 5
[INFO] MomentumPredictor: 3936.51 [ms]
[INFO] MatrixAssemblyPI: 574.554 [ms]
[INFO] AdjustPhi: 25.499 [ms]
[INFO] ConstrainPressure: 0.004 [ms]
[INFO] MatrixAssemblyPII: 166.631 [ms]
GAMG:  Solving for p, Initial residual = 0.984454, Final residual = 7.30678e-05, No Iterations 31
[INFO] SolveP: 9779.48 [ms]
time step continuity errors : sum local = 9.9032e-08, global = 6.65674e-22, cumulative = 2.02902e-20
[INFO] ContinuityError: 58.985 [ms]
[INFO] CorrectBoundary: 0.972 [ms]
[INFO] PISOStep: 10793.2 [ms]
[INFO] MatrixAssemblyPI: 556.014 [ms]
[INFO] AdjustPhi: 26.942 [ms]
[INFO] ConstrainPressure: 0.003 [ms]
[INFO] MatrixAssemblyPII: 164.971 [ms]
GAMG:  Solving for p, Initial residual = 0.919523, Final residual = 8.78272e-05, No Iterations 35
[INFO] SolveP: 11037.5 [ms]
time step continuity errors : sum local = 1.20132e-07, global = 1.21854e-21, cumulative = 2.15087e-20
[INFO] ContinuityError: 59.807 [ms]
[INFO] CorrectBoundary: 0.9 [ms]
[INFO] PISOStep: 12034.8 [ms]
[INFO] TimeStep: 27331.7 [ms]
ExecutionTime = 618.48 s  ClockTime = 621 s

End

Finalising parallel run
