/*---------------------------------------------------------------------------*\
| =========                 |                                                 |
| \\      /  F ield         | OpenFOAM: The Open Source CFD Toolbox           |
|  \\    /   O peration     | Version:  2306                                  |
|   \\  /    A nd           | Website:  www.openfoam.com                      |
|    \\/     M anipulation  |                                                 |
\*---------------------------------------------------------------------------*/
Build  : a6e826bd55-20230630 OPENFOAM=2306 version=v2306
Arch   : "LSB;label=32;scalar=64"
Exec   : icoFoam -parallel -case /tmp/lidDrivenCavity/workspace/f13393a75b93e9849c3f5995b9712966/case
Date   : Dec 16 2023
Time   : 12:46:27
Host   : nla-gpu2.ianm.kit.edu
PID    : 175714
I/O    : uncollated
Case   : /tmp/lidDrivenCavity/workspace/f13393a75b93e9849c3f5995b9712966/case
nProcs : 8
Hosts  :
(
    (nla-gpu2.ianm.kit.edu 8)
)
Pstream initialized with:
    floatTransfer      : false
    nProcsSimpleSum    : 0
    nonBlockingExchange: 0 (tuning: 0)
    exchange algorithm : -1
    commsType          : nonBlocking
    polling iterations : 0
trapFpe: Floating point exception trapping enabled (FOAM_SIGFPE).
fileModificationChecking : Monitoring run-time modified files using timeStampMaster (fileModificationSkew 5, maxFileModificationPolls 20)
allowSystemOperations : Allowing user-supplied system call operations

// * * * * * * * * * * * * * * * * * * * * * * * * * * * * * * * * * * * * * //
Create time

--> FOAM Warning : 
    From void* Foam::dlLibraryTable::openLibrary(const Foam::fileName&, bool)
    in file db/dynamicLibrary/dlLibraryTable/dlLibraryTable.C at line 188
    Could not load "libpetscFoam.so"
libpetscFoam.so: cannot open shared object file: No such file or directory
Create mesh for time = 0


PISO: Operating solver in PISO mode

Reading transportProperties

Reading field p

Reading field U

Reading/calculating face flux field phi


Starting time loop

Time = 0.000166

Courant Number mean: 8.14055e-18 max: 3.11001e-14
[INFO] MatrixAssemblyU: 346.035 [ms]
DILUPBiCGStab:  Solving for Ux, Initial residual = 1, Final residual = 0.0159896, No Iterations 5
DILUPBiCGStab:  Solving for Uy:  solution singularity
DILUPBiCGStab:  Solving for Uz:  solution singularity
[INFO] MomentumPredictor: 1583.7 [ms]
[INFO] MatrixAssemblyPI: 352.555 [ms]
[INFO] AdjustPhi: 19.703 [ms]
[INFO] ConstrainPressure: 0.016 [ms]
[INFO] MatrixAssemblyPII: 99.312 [ms]
[OGL LOG][lduLduBase.H:119] Initialising OGL
	OGL commit:  1421b02+
	Branch: feat/on_device_permute 
	Build type: Release
	Ginkgo version: 1.7.0 ( develop)
	Ginkgo commit: sparse-communicator
	MPI is GPU aware: 1
	Forces host buffer based communication: 0
	CPU ranks per GPU: 1
	Matrix format: Coo
	End OGL_INFO
[OGL LOG][Proc: 0]: global_index_init: 4.406 [ms]
[OGL LOG][Proc: 0]p_local_cols: call_init: 0.031 [ms]
[OGL LOG][Proc: 0]p_local_rows: call_init: 0.011 [ms]
[OGL LOG][Proc: 0]p_local_ldu_map: call_init: 0.005 [ms]
[OGL LOG][Proc: 0]p_local_coeffs: call_init: 0.424 [ms]
[OGL LOG][Proc: 0]p_non_local_cols: call_init: 0.005 [ms]
[OGL LOG][Proc: 0]p_non_local_rows: call_init: 0.002 [ms]
[OGL LOG][Proc: 0]p_non_local_ldu_map: call_init: 0.002 [ms]
[OGL LOG][Proc: 0]p_non_local_coeffs: call_init: 0.002 [ms]
[OGL LOG][Proc: 0]p: init_local_sparsity_pattern: 917.508 [ms]
[OGL LOG][Proc: 0]p: init_non_local_sparsity_pattern: 2.532 [ms]
[OGL LOG][Proc: 0]p: update_local_matrix_data: 97.901 [ms]
[OGL LOG][Proc: 0]p: update_non_local_matrix_data: 0.247 [ms]
[OGL LOG][Proc: 0]device_partition: call_init: 0.161 [ms]
[OGL LOG][Proc: 0]p_matrix: call_init: 153.26 [ms]
[OGL LOG][Proc: 0]p_rhs: call_init: 14.903 [ms]
[OGL LOG][Proc: 0]p_solution: call_init: 1.88 [ms]
[OGL LOG][Proc: 0]p: init_precond: 0.109 [ms]
[OGL LOG][StoppingCriterion.H:237] Creating stopping criterion with minIter 0 frequency 1
[OGL LOG][Proc: 0]p: generate_solver: 0.029 [ms]
[OGL LOG][Proc: 0]p: solve: 6358.51 [ms]
[OGL LOG][Proc: 0]p: copy_x_back: 9.902 [ms]
[OGL LOG][lduLduBase.H:330] 
Statistics:
	Time per iteration: 2615 [mu s]
	Time per residual norm calculation: 1134.000000 [mu s]
	Time per iteration and DOF: 0.096852 [ns]
	Retrieve results bandwidth 2.726000 [GByte/s]
[OGL LOG][Proc: 0]p: solve_multi_gpu: 6548.92 [ms]
nonehipGKOCG:  Solving for p, Initial residual = 1, Final residual = 9.81881e-05, No Iterations 2431
[INFO] SolveP: 7811.73 [ms]
time step continuity errors : sum local = 3.97416e-09, global = 2.01405e-21, cumulative = 2.01405e-21
[INFO] ContinuityError: 51.68 [ms]
[INFO] CorrectBoundary: 2.4 [ms]
[INFO] PISOStep: 8452.46 [ms]
[INFO] MatrixAssemblyPI: 339.38 [ms]
[INFO] AdjustPhi: 23.45 [ms]
[INFO] ConstrainPressure: 0.004 [ms]
[INFO] MatrixAssemblyPII: 99.319 [ms]
[OGL LOG][Proc: 0]: global_index_init: 0.137 [ms]
[OGL LOG][Proc: 0]p_local_coeffs: call_update: 0.004 [ms]
[OGL LOG][Proc: 0]p_non_local_coeffs: call_update: 0 [ms]
[OGL LOG][Proc: 0]p: update_local_matrix_data: 60.631 [ms]
[OGL LOG][Proc: 0]p: update_non_local_matrix_data: 0.241 [ms]
[OGL LOG][Proc: 0]p_matrix: call_update: 2.387 [ms]
[OGL LOG][Proc: 0]p_rhs: call_update: 2.173 [ms]
[OGL LOG][Proc: 0]p: init_precond: 0.075 [ms]
[OGL LOG][StoppingCriterion.H:237] Creating stopping criterion with minIter 1458 frequency 22
[OGL LOG][Proc: 0]p: generate_solver: 0.004 [ms]
[OGL LOG][Proc: 0]p: solve: 4358.4 [ms]
[OGL LOG][Proc: 0]p: copy_x_back: 11.125 [ms]
[OGL LOG][lduLduBase.H:330] 
Statistics:
	Time per iteration: 1800 [mu s]
	Time per residual norm calculation: 345.000000 [mu s]
	Time per iteration and DOF: 0.066667 [ns]
	Retrieve results bandwidth 2.426000 [GByte/s]
[OGL LOG][Proc: 0]p: solve_multi_gpu: 4378.69 [ms]
nonehipGKOCG:  Solving for p, Initial residual = 0.809676, Final residual = 9.03443e-05, No Iterations 2421
[INFO] SolveP: 4450.4 [ms]
time step continuity errors : sum local = 4.46215e-09, global = 1.0757e-22, cumulative = 2.12162e-21
[INFO] ContinuityError: 51.606 [ms]
[INFO] CorrectBoundary: 0.91 [ms]
[INFO] PISOStep: 5082.07 [ms]
[INFO] TimeStep: 15514.3 [ms]
ExecutionTime = 20.09 s  ClockTime = 18 s

Time = 0.000332

Courant Number mean: 0.0128497 max: 0.426563
[INFO] MatrixAssemblyU: 261.5 [ms]
DILUPBiCGStab:  Solving for Ux, Initial residual = 0.116942, Final residual = 0.00923014, No Iterations 5
DILUPBiCGStab:  Solving for Uy, Initial residual = 0.459876, Final residual = 0.0300233, No Iterations 5
DILUPBiCGStab:  Solving for Uz, Initial residual = 0.995324, Final residual = 0.0718333, No Iterations 5
[INFO] MomentumPredictor: 2969.88 [ms]
[INFO] MatrixAssemblyPI: 346.349 [ms]
[INFO] AdjustPhi: 19.884 [ms]
[INFO] ConstrainPressure: 0.005 [ms]
[INFO] MatrixAssemblyPII: 97.987 [ms]
[OGL LOG][Proc: 0]: global_index_init: 0.209 [ms]
[OGL LOG][Proc: 0]p_local_coeffs: call_update: 0 [ms]
[OGL LOG][Proc: 0]p_non_local_coeffs: call_update: 0 [ms]
[OGL LOG][Proc: 0]p: update_local_matrix_data: 56.402 [ms]
[OGL LOG][Proc: 0]p: update_non_local_matrix_data: 0.238 [ms]
[OGL LOG][Proc: 0]p_matrix: call_update: 2.282 [ms]
[OGL LOG][Proc: 0]p_rhs: call_update: 2.31 [ms]
[OGL LOG][Proc: 0]p: init_precond: 0.069 [ms]
[OGL LOG][StoppingCriterion.H:237] Creating stopping criterion with minIter 1452 frequency 13
[OGL LOG][Proc: 0]p: generate_solver: 0.005 [ms]
[OGL LOG][Proc: 0]p: solve: 4238.9 [ms]
[OGL LOG][Proc: 0]p: copy_x_back: 9.613 [ms]
[OGL LOG][lduLduBase.H:330] 
Statistics:
	Time per iteration: 1771 [mu s]
	Time per residual norm calculation: 313.000000 [mu s]
	Time per iteration and DOF: 0.065593 [ns]
	Retrieve results bandwidth 2.808000 [GByte/s]
[OGL LOG][Proc: 0]p: solve_multi_gpu: 4258.97 [ms]
nonehipGKOCG:  Solving for p, Initial residual = 0.878213, Final residual = 7.4369e-05, No Iterations 2393
[INFO] SolveP: 4325.91 [ms]
time step continuity errors : sum local = 7.06513e-09, global = 1.1071e-22, cumulative = 2.23233e-21
[INFO] ContinuityError: 53.939 [ms]
[INFO] CorrectBoundary: 1.017 [ms]
[INFO] PISOStep: 4961.16 [ms]
[INFO] MatrixAssemblyPI: 338.634 [ms]
[INFO] AdjustPhi: 21.94 [ms]
[INFO] ConstrainPressure: 0.004 [ms]
[INFO] MatrixAssemblyPII: 98.881 [ms]
[OGL LOG][Proc: 0]: global_index_init: 0.255 [ms]
[OGL LOG][Proc: 0]p_local_coeffs: call_update: 0 [ms]
[OGL LOG][Proc: 0]p_non_local_coeffs: call_update: 0 [ms]
[OGL LOG][Proc: 0]p: update_local_matrix_data: 56.667 [ms]
[OGL LOG][Proc: 0]p: update_non_local_matrix_data: 0.26 [ms]
[OGL LOG][Proc: 0]p_matrix: call_update: 2.263 [ms]
[OGL LOG][Proc: 0]p_rhs: call_update: 2.801 [ms]
[OGL LOG][Proc: 0]p: init_precond: 0.065 [ms]
[OGL LOG][StoppingCriterion.H:237] Creating stopping criterion with minIter 1435 frequency 13
[OGL LOG][Proc: 0]p: generate_solver: 0.004 [ms]
[OGL LOG][Proc: 0]p: solve: 4223.53 [ms]
[OGL LOG][Proc: 0]p: copy_x_back: 9.583 [ms]
[OGL LOG][lduLduBase.H:330] 
Statistics:
	Time per iteration: 1774 [mu s]
	Time per residual norm calculation: 348.000000 [mu s]
	Time per iteration and DOF: 0.065704 [ns]
	Retrieve results bandwidth 2.817000 [GByte/s]
[OGL LOG][Proc: 0]p: solve_multi_gpu: 4245.58 [ms]
nonehipGKOCG:  Solving for p, Initial residual = 0.826378, Final residual = 8.97512e-05, No Iterations 2380
[INFO] SolveP: 4315.76 [ms]
time step continuity errors : sum local = 8.68392e-09, global = 8.83304e-22, cumulative = 3.11563e-21
[INFO] ContinuityError: 49.435 [ms]
[INFO] CorrectBoundary: 1.136 [ms]
[INFO] PISOStep: 4942.98 [ms]
[INFO] TimeStep: 13180.3 [ms]
ExecutionTime = 36.21 s  ClockTime = 31 s

Time = 0.000498

Courant Number mean: 0.0198261 max: 0.491805
[INFO] MatrixAssemblyU: 262.038 [ms]
DILUPBiCGStab:  Solving for Ux, Initial residual = 0.0544582, Final residual = 0.00348871, No Iterations 5
DILUPBiCGStab:  Solving for Uy, Initial residual = 0.226376, Final residual = 0.0156761, No Iterations 5
DILUPBiCGStab:  Solving for Uz, Initial residual = 0.854945, Final residual = 0.0552553, No Iterations 5
[INFO] MomentumPredictor: 2962.45 [ms]
[INFO] MatrixAssemblyPI: 344.064 [ms]
[INFO] AdjustPhi: 19.093 [ms]
[INFO] ConstrainPressure: 0.005 [ms]
[INFO] MatrixAssemblyPII: 98.624 [ms]
[OGL LOG][Proc: 0]: global_index_init: 0.037 [ms]
[OGL LOG][Proc: 0]p_local_coeffs: call_update: 0 [ms]
[OGL LOG][Proc: 0]p_non_local_coeffs: call_update: 0 [ms]
[OGL LOG][Proc: 0]p: update_local_matrix_data: 76.631 [ms]
[OGL LOG][Proc: 0]p: update_non_local_matrix_data: 0.23 [ms]
[OGL LOG][Proc: 0]p_matrix: call_update: 2.357 [ms]
[OGL LOG][Proc: 0]p_rhs: call_update: 2.768 [ms]
[OGL LOG][Proc: 0]p: init_precond: 0.067 [ms]
[OGL LOG][StoppingCriterion.H:237] Creating stopping criterion with minIter 1428 frequency 13
[OGL LOG][Proc: 0]p: generate_solver: 0.005 [ms]
[OGL LOG][Proc: 0]p: solve: 2554.49 [ms]
[OGL LOG][Proc: 0]p: copy_x_back: 9.583 [ms]
[OGL LOG][lduLduBase.H:330] 
Statistics:
	Time per iteration: 1785 [mu s]
	Time per residual norm calculation: 345.000000 [mu s]
	Time per iteration and DOF: 0.066111 [ns]
	Retrieve results bandwidth 2.817000 [GByte/s]
[OGL LOG][Proc: 0]p: solve_multi_gpu: 2572.42 [ms]
nonehipGKOCG:  Solving for p, Initial residual = 0.913751, Final residual = 6.92082e-05, No Iterations 1431
[INFO] SolveP: 2659.69 [ms]
time step continuity errors : sum local = 7.6978e-09, global = 2.922e-22, cumulative = 3.40783e-21
[INFO] ContinuityError: 52.71 [ms]
[INFO] CorrectBoundary: 1.076 [ms]
[INFO] PISOStep: 3287.93 [ms]
[INFO] MatrixAssemblyPI: 341.345 [ms]
[INFO] AdjustPhi: 18.822 [ms]
[INFO] ConstrainPressure: 0.004 [ms]
[INFO] MatrixAssemblyPII: 98.548 [ms]
[OGL LOG][Proc: 0]: global_index_init: 0.121 [ms]
[OGL LOG][Proc: 0]p_local_coeffs: call_update: 0 [ms]
[OGL LOG][Proc: 0]p_non_local_coeffs: call_update: 0 [ms]
[OGL LOG][Proc: 0]p: update_local_matrix_data: 53.067 [ms]
[OGL LOG][Proc: 0]p: update_non_local_matrix_data: 0.237 [ms]
[OGL LOG][Proc: 0]p_matrix: call_update: 2.078 [ms]
[OGL LOG][Proc: 0]p_rhs: call_update: 3.061 [ms]
[OGL LOG][Proc: 0]p: init_precond: 0.069 [ms]
[OGL LOG][StoppingCriterion.H:237] Creating stopping criterion with minIter 858 frequency 10
[OGL LOG][Proc: 0]p: generate_solver: 0.005 [ms]
[OGL LOG][Proc: 0]p: solve: 2103.46 [ms]
[OGL LOG][Proc: 0]p: copy_x_back: 9.763 [ms]
[OGL LOG][lduLduBase.H:330] 
Statistics:
	Time per iteration: 1811 [mu s]
	Time per residual norm calculation: 347.000000 [mu s]
	Time per iteration and DOF: 0.067074 [ns]
	Retrieve results bandwidth 2.765000 [GByte/s]
[OGL LOG][Proc: 0]p: solve_multi_gpu: 2128.05 [ms]
nonehipGKOCG:  Solving for p, Initial residual = 0.882693, Final residual = 8.29169e-05, No Iterations 1161
[INFO] SolveP: 2191.93 [ms]
time step continuity errors : sum local = 8.67465e-09, global = -8.22696e-22, cumulative = 2.58514e-21
[INFO] ContinuityError: 49.912 [ms]
[INFO] CorrectBoundary: 1.359 [ms]
[INFO] PISOStep: 2813.22 [ms]
[INFO] TimeStep: 9369.95 [ms]
ExecutionTime = 47.16 s  ClockTime = 41 s

Time = 0.000664

Courant Number mean: 0.0239197 max: 0.472009
[INFO] MatrixAssemblyU: 263.234 [ms]
DILUPBiCGStab:  Solving for Ux, Initial residual = 0.0384975, Final residual = 0.00279683, No Iterations 5
DILUPBiCGStab:  Solving for Uy, Initial residual = 0.174095, Final residual = 0.0125979, No Iterations 5
DILUPBiCGStab:  Solving for Uz, Initial residual = 0.730048, Final residual = 0.0385504, No Iterations 5
[INFO] MomentumPredictor: 2964.82 [ms]
[INFO] MatrixAssemblyPI: 343.222 [ms]
[INFO] AdjustPhi: 20.557 [ms]
[INFO] ConstrainPressure: 0.004 [ms]
[INFO] MatrixAssemblyPII: 98.338 [ms]
[OGL LOG][Proc: 0]: global_index_init: 0.119 [ms]
[OGL LOG][Proc: 0]p_local_coeffs: call_update: 0 [ms]
[OGL LOG][Proc: 0]p_non_local_coeffs: call_update: 0 [ms]
[OGL LOG][Proc: 0]p: update_local_matrix_data: 60.27 [ms]
[OGL LOG][Proc: 0]p: update_non_local_matrix_data: 0.228 [ms]
[OGL LOG][Proc: 0]p_matrix: call_update: 2.278 [ms]
[OGL LOG][Proc: 0]p_rhs: call_update: 3.772 [ms]
[OGL LOG][Proc: 0]p: init_precond: 0.066 [ms]
[OGL LOG][StoppingCriterion.H:237] Creating stopping criterion with minIter 696 frequency 9
[OGL LOG][Proc: 0]p: generate_solver: 0.005 [ms]
[OGL LOG][Proc: 0]p: solve: 2135.6 [ms]
[OGL LOG][Proc: 0]p: copy_x_back: 9.222 [ms]
[OGL LOG][lduLduBase.H:330] 
Statistics:
	Time per iteration: 1837 [mu s]
	Time per residual norm calculation: 345.000000 [mu s]
	Time per iteration and DOF: 0.068037 [ns]
	Retrieve results bandwidth 2.927000 [GByte/s]
[OGL LOG][Proc: 0]p: solve_multi_gpu: 2158.34 [ms]
nonehipGKOCG:  Solving for p, Initial residual = 0.890266, Final residual = 9.31474e-05, No Iterations 1162
[INFO] SolveP: 2230.02 [ms]
time step continuity errors : sum local = 1.11403e-08, global = 9.65166e-22, cumulative = 3.5503e-21
[INFO] ContinuityError: 49.224 [ms]
[INFO] CorrectBoundary: 1.097 [ms]
[INFO] PISOStep: 2854.19 [ms]
[INFO] MatrixAssemblyPI: 336.925 [ms]
[INFO] AdjustPhi: 18.926 [ms]
[INFO] ConstrainPressure: 0.004 [ms]
[INFO] MatrixAssemblyPII: 98.766 [ms]
[OGL LOG][Proc: 0]: global_index_init: 0.363 [ms]
[OGL LOG][Proc: 0]p_local_coeffs: call_update: 0 [ms]
[OGL LOG][Proc: 0]p_non_local_coeffs: call_update: 0 [ms]
[OGL LOG][Proc: 0]p: update_local_matrix_data: 56.78 [ms]
[OGL LOG][Proc: 0]p: update_non_local_matrix_data: 0.25 [ms]
[OGL LOG][Proc: 0]p_matrix: call_update: 2.339 [ms]
[OGL LOG][Proc: 0]p_rhs: call_update: 2.144 [ms]
[OGL LOG][Proc: 0]p: init_precond: 0.065 [ms]
[OGL LOG][StoppingCriterion.H:237] Creating stopping criterion with minIter 697 frequency 9
[OGL LOG][Proc: 0]p: generate_solver: 0.005 [ms]
[OGL LOG][Proc: 0]p: solve: 2129.94 [ms]
[OGL LOG][Proc: 0]p: copy_x_back: 9.785 [ms]
[OGL LOG][lduLduBase.H:330] 
Statistics:
	Time per iteration: 1847 [mu s]
	Time per residual norm calculation: 344.000000 [mu s]
	Time per iteration and DOF: 0.068407 [ns]
	Retrieve results bandwidth 2.759000 [GByte/s]
[OGL LOG][Proc: 0]p: solve_multi_gpu: 2149.52 [ms]
nonehipGKOCG:  Solving for p, Initial residual = 0.830204, Final residual = 8.53209e-05, No Iterations 1153
[INFO] SolveP: 2217.55 [ms]
time step continuity errors : sum local = 9.89194e-09, global = 6.11371e-22, cumulative = 4.16167e-21
[INFO] ContinuityError: 48.22 [ms]
[INFO] CorrectBoundary: 2.047 [ms]
[INFO] PISOStep: 2835.71 [ms]
[INFO] TimeStep: 8964.78 [ms]
ExecutionTime = 57.54 s  ClockTime = 49 s

Time = 0.00083

Courant Number mean: 0.0274473 max: 0.504974
[INFO] MatrixAssemblyU: 261.607 [ms]
DILUPBiCGStab:  Solving for Ux, Initial residual = 0.0323959, Final residual = 0.0023807, No Iterations 5
DILUPBiCGStab:  Solving for Uy, Initial residual = 0.129655, Final residual = 0.0105549, No Iterations 5
DILUPBiCGStab:  Solving for Uz, Initial residual = 0.67628, Final residual = 0.0332728, No Iterations 5
[INFO] MomentumPredictor: 2977.15 [ms]
[INFO] MatrixAssemblyPI: 348.551 [ms]
[INFO] AdjustPhi: 18.628 [ms]
[INFO] ConstrainPressure: 0.005 [ms]
[INFO] MatrixAssemblyPII: 98.116 [ms]
[OGL LOG][Proc: 0]: global_index_init: 0.096 [ms]
[OGL LOG][Proc: 0]p_local_coeffs: call_update: 0 [ms]
[OGL LOG][Proc: 0]p_non_local_coeffs: call_update: 0 [ms]
[OGL LOG][Proc: 0]p: update_local_matrix_data: 54.105 [ms]
[OGL LOG][Proc: 0]p: update_non_local_matrix_data: 0.244 [ms]
[OGL LOG][Proc: 0]p_matrix: call_update: 2.297 [ms]
[OGL LOG][Proc: 0]p_rhs: call_update: 2.637 [ms]
[OGL LOG][Proc: 0]p: init_precond: 0.06 [ms]
[OGL LOG][StoppingCriterion.H:237] Creating stopping criterion with minIter 691 frequency 9
[OGL LOG][Proc: 0]p: generate_solver: 0.005 [ms]
[OGL LOG][Proc: 0]p: solve: 4245.6 [ms]
[OGL LOG][Proc: 0]p: copy_x_back: 9.372 [ms]
[OGL LOG][lduLduBase.H:330] 
Statistics:
	Time per iteration: 1786 [mu s]
	Time per residual norm calculation: 347.000000 [mu s]
	Time per iteration and DOF: 0.066148 [ns]
	Retrieve results bandwidth 2.880000 [GByte/s]
[OGL LOG][Proc: 0]p: solve_multi_gpu: 4267.43 [ms]
nonehipGKOCG:  Solving for p, Initial residual = 0.910497, Final residual = 9.9142e-05, No Iterations 2377
[INFO] SolveP: 4333.32 [ms]
time step continuity errors : sum local = 1.0934e-08, global = 1.33491e-21, cumulative = 5.49658e-21
[INFO] ContinuityError: 46.817 [ms]
[INFO] CorrectBoundary: 1.25 [ms]
[INFO] PISOStep: 4969.6 [ms]
[INFO] MatrixAssemblyPI: 336.181 [ms]
[INFO] AdjustPhi: 19.571 [ms]
[INFO] ConstrainPressure: 0.004 [ms]
[INFO] MatrixAssemblyPII: 98.101 [ms]
[OGL LOG][Proc: 0]: global_index_init: 0.22 [ms]
[OGL LOG][Proc: 0]p_local_coeffs: call_update: 0 [ms]
[OGL LOG][Proc: 0]p_non_local_coeffs: call_update: 0 [ms]
[OGL LOG][Proc: 0]p: update_local_matrix_data: 65.6 [ms]
[OGL LOG][Proc: 0]p: update_non_local_matrix_data: 0.236 [ms]
[OGL LOG][Proc: 0]p_matrix: call_update: 2.233 [ms]
[OGL LOG][Proc: 0]p_rhs: call_update: 2.504 [ms]
[OGL LOG][Proc: 0]p: init_precond: 0.066 [ms]
[OGL LOG][StoppingCriterion.H:237] Creating stopping criterion with minIter 1426 frequency 13
[OGL LOG][Proc: 0]p: generate_solver: 0.005 [ms]
[OGL LOG][Proc: 0]p: solve: 4192.23 [ms]
[OGL LOG][Proc: 0]p: copy_x_back: 11.25 [ms]
[OGL LOG][lduLduBase.H:330] 
Statistics:
	Time per iteration: 1761 [mu s]
	Time per residual norm calculation: 307.000000 [mu s]
	Time per iteration and DOF: 0.065222 [ns]
	Retrieve results bandwidth 2.400000 [GByte/s]
[OGL LOG][Proc: 0]p: solve_multi_gpu: 4213.62 [ms]
nonehipGKOCG:  Solving for p, Initial residual = 0.872713, Final residual = 8.51661e-05, No Iterations 2380
[INFO] SolveP: 4290.29 [ms]
time step continuity errors : sum local = 9.27193e-09, global = 1.71313e-21, cumulative = 7.20971e-21
[INFO] ContinuityError: 47.655 [ms]
[INFO] CorrectBoundary: 1.473 [ms]
[INFO] PISOStep: 4908.23 [ms]
[INFO] TimeStep: 13161.5 [ms]
ExecutionTime = 73.62 s  ClockTime = 63 s

Time = 0.000996

Courant Number mean: 0.0301893 max: 0.47838
[INFO] MatrixAssemblyU: 262.257 [ms]
DILUPBiCGStab:  Solving for Ux, Initial residual = 0.0270647, Final residual = 0.00213755, No Iterations 5
DILUPBiCGStab:  Solving for Uy, Initial residual = 0.111896, Final residual = 0.00833879, No Iterations 5
DILUPBiCGStab:  Solving for Uz, Initial residual = 0.579704, Final residual = 0.0255806, No Iterations 5
[INFO] MomentumPredictor: 2959.89 [ms]
[INFO] MatrixAssemblyPI: 347.582 [ms]
[INFO] AdjustPhi: 17.88 [ms]
[INFO] ConstrainPressure: 0.005 [ms]
[INFO] MatrixAssemblyPII: 98.341 [ms]
[OGL LOG][Proc: 0]: global_index_init: 0.125 [ms]
[OGL LOG][Proc: 0]p_local_coeffs: call_update: 0 [ms]
[OGL LOG][Proc: 0]p_non_local_coeffs: call_update: 0 [ms]
[OGL LOG][Proc: 0]p: update_local_matrix_data: 56.641 [ms]
[OGL LOG][Proc: 0]p: update_non_local_matrix_data: 0.24 [ms]
[OGL LOG][Proc: 0]p_matrix: call_update: 2.222 [ms]
[OGL LOG][Proc: 0]p_rhs: call_update: 3.213 [ms]
[OGL LOG][Proc: 0]p: init_precond: 0.06 [ms]
[OGL LOG][StoppingCriterion.H:237] Creating stopping criterion with minIter 1428 frequency 13
[OGL LOG][Proc: 0]p: generate_solver: 0.004 [ms]
[OGL LOG][Proc: 0]p: solve: 4177.23 [ms]
[OGL LOG][Proc: 0]p: copy_x_back: 9.641 [ms]
[OGL LOG][lduLduBase.H:330] 
Statistics:
	Time per iteration: 1755 [mu s]
	Time per residual norm calculation: 347.000000 [mu s]
	Time per iteration and DOF: 0.065000 [ns]
	Retrieve results bandwidth 2.800000 [GByte/s]
[OGL LOG][Proc: 0]p: solve_multi_gpu: 4197.61 [ms]
nonehipGKOCG:  Solving for p, Initial residual = 0.887863, Final residual = 8.06694e-05, No Iterations 2380
[INFO] SolveP: 4264.76 [ms]
time step continuity errors : sum local = 9.07684e-09, global = 3.72394e-22, cumulative = 7.58211e-21
[INFO] ContinuityError: 51.064 [ms]
[INFO] CorrectBoundary: 0.929 [ms]
[INFO] PISOStep: 4893.33 [ms]
[INFO] MatrixAssemblyPI: 335.498 [ms]
[INFO] AdjustPhi: 19.847 [ms]
[INFO] ConstrainPressure: 0.003 [ms]
[INFO] MatrixAssemblyPII: 98.874 [ms]
[OGL LOG][Proc: 0]: global_index_init: 0.228 [ms]
[OGL LOG][Proc: 0]p_local_coeffs: call_update: 0 [ms]
[OGL LOG][Proc: 0]p_non_local_coeffs: call_update: 0 [ms]
[OGL LOG][Proc: 0]p: update_local_matrix_data: 73.198 [ms]
[OGL LOG][Proc: 0]p: update_non_local_matrix_data: 0.226 [ms]
[OGL LOG][Proc: 0]p_matrix: call_update: 2.486 [ms]
[OGL LOG][Proc: 0]p_rhs: call_update: 4.004 [ms]
[OGL LOG][Proc: 0]p: init_precond: 0.061 [ms]
[OGL LOG][StoppingCriterion.H:237] Creating stopping criterion with minIter 1428 frequency 13
[OGL LOG][Proc: 0]p: generate_solver: 0.005 [ms]
[OGL LOG][Proc: 0]p: solve: 4198.29 [ms]
[OGL LOG][Proc: 0]p: copy_x_back: 9.359 [ms]
[OGL LOG][lduLduBase.H:330] 
Statistics:
	Time per iteration: 1763 [mu s]
	Time per residual norm calculation: 311.000000 [mu s]
	Time per iteration and DOF: 0.065296 [ns]
	Retrieve results bandwidth 2.884000 [GByte/s]
[OGL LOG][Proc: 0]p: solve_multi_gpu: 4220.22 [ms]
nonehipGKOCG:  Solving for p, Initial residual = 0.824756, Final residual = 7.77335e-05, No Iterations 2380
[INFO] SolveP: 4304.19 [ms]
time step continuity errors : sum local = 8.87973e-09, global = -3.83551e-22, cumulative = 7.19856e-21
[INFO] ContinuityError: 50.723 [ms]
[INFO] CorrectBoundary: 1.331 [ms]
[INFO] PISOStep: 4921.35 [ms]
[INFO] TimeStep: 13082.2 [ms]
ExecutionTime = 89.63 s  ClockTime = 76 s

Time = 0.001162

Courant Number mean: 0.0326682 max: 0.511866
[INFO] MatrixAssemblyU: 261.427 [ms]
DILUPBiCGStab:  Solving for Ux, Initial residual = 0.0245506, Final residual = 0.0019681, No Iterations 5
DILUPBiCGStab:  Solving for Uy, Initial residual = 0.0982922, Final residual = 0.00769252, No Iterations 5
DILUPBiCGStab:  Solving for Uz, Initial residual = 0.552991, Final residual = 0.0227981, No Iterations 5
[INFO] MomentumPredictor: 2957.61 [ms]
[INFO] MatrixAssemblyPI: 345.953 [ms]
[INFO] AdjustPhi: 17.934 [ms]
[INFO] ConstrainPressure: 0.004 [ms]
[INFO] MatrixAssemblyPII: 98.241 [ms]
[OGL LOG][Proc: 0]: global_index_init: 0.17 [ms]
[OGL LOG][Proc: 0]p_local_coeffs: call_update: 0 [ms]
[OGL LOG][Proc: 0]p_non_local_coeffs: call_update: 0 [ms]
[OGL LOG][Proc: 0]p: update_local_matrix_data: 56.864 [ms]
[OGL LOG][Proc: 0]p: update_non_local_matrix_data: 0.248 [ms]
[OGL LOG][Proc: 0]p_matrix: call_update: 2.282 [ms]
[OGL LOG][Proc: 0]p_rhs: call_update: 2.843 [ms]
[OGL LOG][Proc: 0]p: init_precond: 0.065 [ms]
[OGL LOG][StoppingCriterion.H:237] Creating stopping criterion with minIter 1428 frequency 13
[OGL LOG][Proc: 0]p: generate_solver: 0.005 [ms]
[OGL LOG][Proc: 0]p: solve: 4071.13 [ms]
[OGL LOG][Proc: 0]p: copy_x_back: 9.023 [ms]
[OGL LOG][lduLduBase.H:330] 
Statistics:
	Time per iteration: 1768 [mu s]
	Time per residual norm calculation: 350.000000 [mu s]
	Time per iteration and DOF: 0.065481 [ns]
	Retrieve results bandwidth 2.992000 [GByte/s]
[OGL LOG][Proc: 0]p: solve_multi_gpu: 4090.86 [ms]
nonehipGKOCG:  Solving for p, Initial residual = 0.905803, Final residual = 7.95136e-05, No Iterations 2302
[INFO] SolveP: 4158.31 [ms]
time step continuity errors : sum local = 8.72319e-09, global = 8.72429e-22, cumulative = 8.07098e-21
[INFO] ContinuityError: 50.445 [ms]
[INFO] CorrectBoundary: 2.2 [ms]
[INFO] PISOStep: 4784.3 [ms]
[INFO] MatrixAssemblyPI: 335.524 [ms]
[INFO] AdjustPhi: 19.844 [ms]
[INFO] ConstrainPressure: 0.004 [ms]
[INFO] MatrixAssemblyPII: 98.129 [ms]
[OGL LOG][Proc: 0]: global_index_init: 0.298 [ms]
[OGL LOG][Proc: 0]p_local_coeffs: call_update: 0 [ms]
[OGL LOG][Proc: 0]p_non_local_coeffs: call_update: 0 [ms]
[OGL LOG][Proc: 0]p: update_local_matrix_data: 55.155 [ms]
[OGL LOG][Proc: 0]p: update_non_local_matrix_data: 0.245 [ms]
[OGL LOG][Proc: 0]p_matrix: call_update: 2.305 [ms]
[OGL LOG][Proc: 0]p_rhs: call_update: 3.073 [ms]
[OGL LOG][Proc: 0]p: init_precond: 0.063 [ms]
[OGL LOG][StoppingCriterion.H:237] Creating stopping criterion with minIter 1381 frequency 13
[OGL LOG][Proc: 0]p: generate_solver: 0.005 [ms]
[OGL LOG][Proc: 0]p: solve: 4099.1 [ms]
[OGL LOG][Proc: 0]p: copy_x_back: 9.496 [ms]
[OGL LOG][lduLduBase.H:330] 
Statistics:
	Time per iteration: 1780 [mu s]
	Time per residual norm calculation: 348.000000 [mu s]
	Time per iteration and DOF: 0.065926 [ns]
	Retrieve results bandwidth 2.843000 [GByte/s]
[OGL LOG][Proc: 0]p: solve_multi_gpu: 4120.44 [ms]
nonehipGKOCG:  Solving for p, Initial residual = 0.860972, Final residual = 8.43114e-05, No Iterations 2302
[INFO] SolveP: 4191.68 [ms]
time step continuity errors : sum local = 9.14836e-09, global = 9.17622e-22, cumulative = 8.98861e-21
[INFO] ContinuityError: 49.439 [ms]
[INFO] CorrectBoundary: 2.27 [ms]
[INFO] PISOStep: 4810.45 [ms]
[INFO] TimeStep: 12859.7 [ms]
ExecutionTime = 105.33 s  ClockTime = 89 s

Time = 0.001328

Courant Number mean: 0.034753 max: 0.481308
[INFO] MatrixAssemblyU: 262.163 [ms]
DILUPBiCGStab:  Solving for Ux, Initial residual = 0.0221225, Final residual = 0.00183361, No Iterations 5
DILUPBiCGStab:  Solving for Uy, Initial residual = 0.0870734, Final residual = 0.00645276, No Iterations 5
DILUPBiCGStab:  Solving for Uz, Initial residual = 0.509737, Final residual = 0.0204067, No Iterations 5
[INFO] MomentumPredictor: 2952.32 [ms]
[INFO] MatrixAssemblyPI: 343.844 [ms]
[INFO] AdjustPhi: 21.878 [ms]
[INFO] ConstrainPressure: 0.003 [ms]
[INFO] MatrixAssemblyPII: 99.037 [ms]
[OGL LOG][Proc: 0]: global_index_init: 0.243 [ms]
[OGL LOG][Proc: 0]p_local_coeffs: call_update: 0 [ms]
[OGL LOG][Proc: 0]p_non_local_coeffs: call_update: 0 [ms]
[OGL LOG][Proc: 0]p: update_local_matrix_data: 60.4 [ms]
[OGL LOG][Proc: 0]p: update_non_local_matrix_data: 0.236 [ms]
[OGL LOG][Proc: 0]p_matrix: call_update: 2.306 [ms]
[OGL LOG][Proc: 0]p_rhs: call_update: 2.25 [ms]
[OGL LOG][Proc: 0]p: init_precond: 0.064 [ms]
[OGL LOG][StoppingCriterion.H:237] Creating stopping criterion with minIter 1381 frequency 13
[OGL LOG][Proc: 0]p: generate_solver: 0.004 [ms]
[OGL LOG][Proc: 0]p: solve: 4106.09 [ms]
[OGL LOG][Proc: 0]p: copy_x_back: 9.387 [ms]
[OGL LOG][lduLduBase.H:330] 
Statistics:
	Time per iteration: 1773 [mu s]
	Time per residual norm calculation: 349.000000 [mu s]
	Time per iteration and DOF: 0.065667 [ns]
	Retrieve results bandwidth 2.876000 [GByte/s]
[OGL LOG][Proc: 0]p: solve_multi_gpu: 4125.72 [ms]
nonehipGKOCG:  Solving for p, Initial residual = 0.883728, Final residual = 9.44335e-05, No Iterations 2315
[INFO] SolveP: 4197.7 [ms]
time step continuity errors : sum local = 1.05217e-08, global = 1.99258e-21, cumulative = 1.09812e-20
[INFO] ContinuityError: 49.665 [ms]
[INFO] CorrectBoundary: 0.914 [ms]
[INFO] PISOStep: 4827.04 [ms]
[INFO] MatrixAssemblyPI: 334.622 [ms]
[INFO] AdjustPhi: 24.094 [ms]
[INFO] ConstrainPressure: 0.004 [ms]
[INFO] MatrixAssemblyPII: 98.758 [ms]
[OGL LOG][Proc: 0]: global_index_init: 0.314 [ms]
[OGL LOG][Proc: 0]p_local_coeffs: call_update: 0 [ms]
[OGL LOG][Proc: 0]p_non_local_coeffs: call_update: 0 [ms]
[OGL LOG][Proc: 0]p: update_local_matrix_data: 55.918 [ms]
[OGL LOG][Proc: 0]p: update_non_local_matrix_data: 0.255 [ms]
[OGL LOG][Proc: 0]p_matrix: call_update: 2.342 [ms]
[OGL LOG][Proc: 0]p_rhs: call_update: 3.931 [ms]
[OGL LOG][Proc: 0]p: init_precond: 0.064 [ms]
[OGL LOG][StoppingCriterion.H:237] Creating stopping criterion with minIter 1389 frequency 13
[OGL LOG][Proc: 0]p: generate_solver: 0.006 [ms]
[OGL LOG][Proc: 0]p: solve: 4091.05 [ms]
[OGL LOG][Proc: 0]p: copy_x_back: 9.387 [ms]
[OGL LOG][lduLduBase.H:330] 
Statistics:
	Time per iteration: 1767 [mu s]
	Time per residual norm calculation: 349.000000 [mu s]
	Time per iteration and DOF: 0.065444 [ns]
	Retrieve results bandwidth 2.876000 [GByte/s]
[OGL LOG][Proc: 0]p: solve_multi_gpu: 4113.88 [ms]
nonehipGKOCG:  Solving for p, Initial residual = 0.81788, Final residual = 8.84274e-05, No Iterations 2315
[INFO] SolveP: 4184.19 [ms]
time step continuity errors : sum local = 9.98849e-09, global = 9.98717e-22, cumulative = 1.19799e-20
[INFO] ContinuityError: 47.174 [ms]
[INFO] CorrectBoundary: 1.12 [ms]
[INFO] PISOStep: 4804.03 [ms]
[INFO] TimeStep: 12889.9 [ms]
ExecutionTime = 121.09 s  ClockTime = 101 s

Time = 0.001494

Courant Number mean: 0.0367021 max: 0.518002
[INFO] MatrixAssemblyU: 259.934 [ms]
DILUPBiCGStab:  Solving for Ux, Initial residual = 0.0205465, Final residual = 0.00171311, No Iterations 5
DILUPBiCGStab:  Solving for Uy, Initial residual = 0.0819326, Final residual = 0.00611179, No Iterations 5
DILUPBiCGStab:  Solving for Uz, Initial residual = 0.505824, Final residual = 0.0192004, No Iterations 5
[INFO] MomentumPredictor: 2960.07 [ms]
[INFO] MatrixAssemblyPI: 342.466 [ms]
[INFO] AdjustPhi: 21.141 [ms]
[INFO] ConstrainPressure: 0.004 [ms]
[INFO] MatrixAssemblyPII: 98.516 [ms]
[OGL LOG][Proc: 0]: global_index_init: 0.141 [ms]
[OGL LOG][Proc: 0]p_local_coeffs: call_update: 0 [ms]
[OGL LOG][Proc: 0]p_non_local_coeffs: call_update: 0 [ms]
[OGL LOG][Proc: 0]p: update_local_matrix_data: 68.767 [ms]
[OGL LOG][Proc: 0]p: update_non_local_matrix_data: 0.239 [ms]
[OGL LOG][Proc: 0]p_matrix: call_update: 2.324 [ms]
[OGL LOG][Proc: 0]p_rhs: call_update: 2.34 [ms]
[OGL LOG][Proc: 0]p: init_precond: 0.062 [ms]
[OGL LOG][StoppingCriterion.H:237] Creating stopping criterion with minIter 1389 frequency 13
[OGL LOG][Proc: 0]p: generate_solver: 0.004 [ms]
[OGL LOG][Proc: 0]p: solve: 3716.59 [ms]
[OGL LOG][Proc: 0]p: copy_x_back: 9.405 [ms]
[OGL LOG][lduLduBase.H:330] 
Statistics:
	Time per iteration: 1774 [mu s]
	Time per residual norm calculation: 319.000000 [mu s]
	Time per iteration and DOF: 0.065704 [ns]
	Retrieve results bandwidth 2.870000 [GByte/s]
[OGL LOG][Proc: 0]p: solve_multi_gpu: 3735.04 [ms]
nonehipGKOCG:  Solving for p, Initial residual = 0.901639, Final residual = 9.63722e-05, No Iterations 2094
[INFO] SolveP: 3814.64 [ms]
time step continuity errors : sum local = 1.05172e-08, global = -5.93771e-22, cumulative = 1.13861e-20
[INFO] ContinuityError: 48.632 [ms]
[INFO] CorrectBoundary: 1.724 [ms]
[INFO] PISOStep: 4439.02 [ms]
[INFO] MatrixAssemblyPI: 333.998 [ms]
[INFO] AdjustPhi: 21.334 [ms]
[INFO] ConstrainPressure: 0.004 [ms]
[INFO] MatrixAssemblyPII: 98.656 [ms]
[OGL LOG][Proc: 0]: global_index_init: 0.193 [ms]
[OGL LOG][Proc: 0]p_local_coeffs: call_update: 0 [ms]
[OGL LOG][Proc: 0]p_non_local_coeffs: call_update: 0 [ms]
[OGL LOG][Proc: 0]p: update_local_matrix_data: 55.588 [ms]
[OGL LOG][Proc: 0]p: update_non_local_matrix_data: 0.24 [ms]
[OGL LOG][Proc: 0]p_matrix: call_update: 2.287 [ms]
[OGL LOG][Proc: 0]p_rhs: call_update: 2.271 [ms]
[OGL LOG][Proc: 0]p: init_precond: 0.058 [ms]
[OGL LOG][StoppingCriterion.H:237] Creating stopping criterion with minIter 1256 frequency 12
[OGL LOG][Proc: 0]p: generate_solver: 0.005 [ms]
[OGL LOG][Proc: 0]p: solve: 3686.7 [ms]
[OGL LOG][Proc: 0]p: copy_x_back: 9.213 [ms]
[OGL LOG][lduLduBase.H:330] 
Statistics:
	Time per iteration: 1764 [mu s]
	Time per residual norm calculation: 350.000000 [mu s]
	Time per iteration and DOF: 0.065333 [ns]
	Retrieve results bandwidth 2.930000 [GByte/s]
[OGL LOG][Proc: 0]p: solve_multi_gpu: 3707.12 [ms]
nonehipGKOCG:  Solving for p, Initial residual = 0.851749, Final residual = 9.23292e-05, No Iterations 2089
[INFO] SolveP: 3773.45 [ms]
time step continuity errors : sum local = 9.97723e-09, global = 1.40745e-23, cumulative = 1.14002e-20
[INFO] ContinuityError: 49.476 [ms]
[INFO] CorrectBoundary: 0.9 [ms]
[INFO] PISOStep: 4391.3 [ms]
[INFO] TimeStep: 12094.8 [ms]
ExecutionTime = 135.78 s  ClockTime = 114 s

Time = 0.00166

Courant Number mean: 0.0383957 max: 0.483672
[INFO] MatrixAssemblyU: 260.985 [ms]
DILUPBiCGStab:  Solving for Ux, Initial residual = 0.0193369, Final residual = 0.00162648, No Iterations 5
DILUPBiCGStab:  Solving for Uy, Initial residual = 0.0736119, Final residual = 0.00529585, No Iterations 5
DILUPBiCGStab:  Solving for Uz, Initial residual = 0.485094, Final residual = 0.018494, No Iterations 5
[INFO] MomentumPredictor: 2968.51 [ms]
[INFO] MatrixAssemblyPI: 341.592 [ms]
[INFO] AdjustPhi: 21.78 [ms]
[INFO] ConstrainPressure: 0.004 [ms]
[INFO] MatrixAssemblyPII: 98.444 [ms]
[OGL LOG][Proc: 0]: global_index_init: 0.081 [ms]
[OGL LOG][Proc: 0]p_local_coeffs: call_update: 0 [ms]
[OGL LOG][Proc: 0]p_non_local_coeffs: call_update: 0 [ms]
[OGL LOG][Proc: 0]p: update_local_matrix_data: 54.566 [ms]
[OGL LOG][Proc: 0]p: update_non_local_matrix_data: 0.252 [ms]
[OGL LOG][Proc: 0]p_matrix: call_update: 2.028 [ms]
[OGL LOG][Proc: 0]p_rhs: call_update: 2.331 [ms]
[OGL LOG][Proc: 0]p: init_precond: 0.058 [ms]
[OGL LOG][StoppingCriterion.H:237] Creating stopping criterion with minIter 1253 frequency 12
[OGL LOG][Proc: 0]p: generate_solver: 0.005 [ms]
[OGL LOG][Proc: 0]p: solve: 4097.21 [ms]
[OGL LOG][Proc: 0]p: copy_x_back: 9.037 [ms]
[OGL LOG][lduLduBase.H:330] 
Statistics:
	Time per iteration: 1777 [mu s]
	Time per residual norm calculation: 342.000000 [mu s]
	Time per iteration and DOF: 0.065815 [ns]
	Retrieve results bandwidth 2.987000 [GByte/s]
[OGL LOG][Proc: 0]p: solve_multi_gpu: 4122.52 [ms]
nonehipGKOCG:  Solving for p, Initial residual = 0.882639, Final residual = 8.99547e-05, No Iterations 2305
[INFO] SolveP: 4187.73 [ms]
time step continuity errors : sum local = 1.01321e-08, global = 1.42011e-21, cumulative = 1.28203e-20
[INFO] ContinuityError: 50.111 [ms]
[INFO] CorrectBoundary: 1.776 [ms]
[INFO] PISOStep: 4813.72 [ms]
[INFO] MatrixAssemblyPI: 336.375 [ms]
[INFO] AdjustPhi: 20.762 [ms]
[INFO] ConstrainPressure: 0.004 [ms]
[INFO] MatrixAssemblyPII: 98.552 [ms]
[OGL LOG][Proc: 0]: global_index_init: 0.197 [ms]
[OGL LOG][Proc: 0]p_local_coeffs: call_update: 0 [ms]
[OGL LOG][Proc: 0]p_non_local_coeffs: call_update: 0 [ms]
[OGL LOG][Proc: 0]p: update_local_matrix_data: 56.95 [ms]
[OGL LOG][Proc: 0]p: update_non_local_matrix_data: 0.215 [ms]
[OGL LOG][Proc: 0]p_matrix: call_update: 2.239 [ms]
[OGL LOG][Proc: 0]p_rhs: call_update: 2.946 [ms]
[OGL LOG][Proc: 0]p: init_precond: 0.07 [ms]
[OGL LOG][StoppingCriterion.H:237] Creating stopping criterion with minIter 1383 frequency 13
[OGL LOG][Proc: 0]p: generate_solver: 0.004 [ms]
[OGL LOG][Proc: 0]p: solve: 4093.4 [ms]
[OGL LOG][Proc: 0]p: copy_x_back: 9.371 [ms]
[OGL LOG][lduLduBase.H:330] 
Statistics:
	Time per iteration: 1778 [mu s]
	Time per residual norm calculation: 331.000000 [mu s]
	Time per iteration and DOF: 0.065852 [ns]
	Retrieve results bandwidth 2.881000 [GByte/s]
[OGL LOG][Proc: 0]p: solve_multi_gpu: 4112.5 [ms]
nonehipGKOCG:  Solving for p, Initial residual = 0.813509, Final residual = 8.64007e-05, No Iterations 2302
[INFO] SolveP: 4180.64 [ms]
time step continuity errors : sum local = 9.85398e-09, global = 9.82356e-22, cumulative = 1.38027e-20
[INFO] ContinuityError: 47.534 [ms]
[INFO] CorrectBoundary: 1.296 [ms]
[INFO] PISOStep: 4798.85 [ms]
[INFO] TimeStep: 12888.9 [ms]
ExecutionTime = 151.5 s  ClockTime = 126 s

Time = 0.001826

Courant Number mean: 0.0400178 max: 0.524625
[INFO] MatrixAssemblyU: 260.597 [ms]
DILUPBiCGStab:  Solving for Ux, Initial residual = 0.0181668, Final residual = 0.00152144, No Iterations 5
DILUPBiCGStab:  Solving for Uy, Initial residual = 0.0719901, Final residual = 0.0051157, No Iterations 5
DILUPBiCGStab:  Solving for Uz, Initial residual = 0.485999, Final residual = 0.0172391, No Iterations 5
[INFO] MomentumPredictor: 2963.22 [ms]
[INFO] MatrixAssemblyPI: 345.973 [ms]
[INFO] AdjustPhi: 21.766 [ms]
[INFO] ConstrainPressure: 0.004 [ms]
[INFO] MatrixAssemblyPII: 98.266 [ms]
[OGL LOG][Proc: 0]: global_index_init: 0.114 [ms]
[OGL LOG][Proc: 0]p_local_coeffs: call_update: 0 [ms]
[OGL LOG][Proc: 0]p_non_local_coeffs: call_update: 0 [ms]
[OGL LOG][Proc: 0]p: update_local_matrix_data: 55.873 [ms]
[OGL LOG][Proc: 0]p: update_non_local_matrix_data: 0.245 [ms]
[OGL LOG][Proc: 0]p_matrix: call_update: 2.261 [ms]
[OGL LOG][Proc: 0]p_rhs: call_update: 2.51 [ms]
[OGL LOG][Proc: 0]p: init_precond: 0.065 [ms]
[OGL LOG][StoppingCriterion.H:237] Creating stopping criterion with minIter 1381 frequency 13
[OGL LOG][Proc: 0]p: generate_solver: 0.004 [ms]
[OGL LOG][Proc: 0]p: solve: 4088.94 [ms]
[OGL LOG][Proc: 0]p: copy_x_back: 9.018 [ms]
[OGL LOG][lduLduBase.H:330] 
Statistics:
	Time per iteration: 1776 [mu s]
	Time per residual norm calculation: 314.000000 [mu s]
	Time per iteration and DOF: 0.065778 [ns]
	Retrieve results bandwidth 2.994000 [GByte/s]
[OGL LOG][Proc: 0]p: solve_multi_gpu: 4109.12 [ms]
nonehipGKOCG:  Solving for p, Initial residual = 0.901632, Final residual = 8.56735e-05, No Iterations 2302
[INFO] SolveP: 4177.07 [ms]
time step continuity errors : sum local = 9.59562e-09, global = 2.03034e-21, cumulative = 1.5833e-20
[INFO] ContinuityError: 46.319 [ms]
[INFO] CorrectBoundary: 2.113 [ms]
[INFO] PISOStep: 4807.38 [ms]
[INFO] MatrixAssemblyPI: 336.387 [ms]
[INFO] AdjustPhi: 19.715 [ms]
[INFO] ConstrainPressure: 0.004 [ms]
[INFO] MatrixAssemblyPII: 98.927 [ms]
[OGL LOG][Proc: 0]: global_index_init: 0.168 [ms]
[OGL LOG][Proc: 0]p_local_coeffs: call_update: 0 [ms]
[OGL LOG][Proc: 0]p_non_local_coeffs: call_update: 0 [ms]
[OGL LOG][Proc: 0]p: update_local_matrix_data: 68.681 [ms]
[OGL LOG][Proc: 0]p: update_non_local_matrix_data: 0.246 [ms]
[OGL LOG][Proc: 0]p_matrix: call_update: 2.267 [ms]
[OGL LOG][Proc: 0]p_rhs: call_update: 5.528 [ms]
[OGL LOG][Proc: 0]p: init_precond: 0.07 [ms]
[OGL LOG][StoppingCriterion.H:237] Creating stopping criterion with minIter 1381 frequency 13
[OGL LOG][Proc: 0]p: generate_solver: 0.004 [ms]
[OGL LOG][Proc: 0]p: solve: 4094.06 [ms]
[OGL LOG][Proc: 0]p: copy_x_back: 10.396 [ms]
[OGL LOG][lduLduBase.H:330] 
Statistics:
	Time per iteration: 1778 [mu s]
	Time per residual norm calculation: 316.000000 [mu s]
	Time per iteration and DOF: 0.065852 [ns]
	Retrieve results bandwidth 2.597000 [GByte/s]
[OGL LOG][Proc: 0]p: solve_multi_gpu: 4118.22 [ms]
nonehipGKOCG:  Solving for p, Initial residual = 0.847137, Final residual = 8.34266e-05, No Iterations 2302
[INFO] SolveP: 4197.66 [ms]
time step continuity errors : sum local = 9.26545e-09, global = -1.16719e-21, cumulative = 1.46658e-20
[INFO] ContinuityError: 50.134 [ms]
[INFO] CorrectBoundary: 1.76 [ms]
[INFO] PISOStep: 4815.61 [ms]
[INFO] TimeStep: 12892.4 [ms]
ExecutionTime = 167.22 s  ClockTime = 139 s

Time = 0.001992

Courant Number mean: 0.041449 max: 0.486753
[INFO] MatrixAssemblyU: 260.646 [ms]
DILUPBiCGStab:  Solving for Ux, Initial residual = 0.0175749, Final residual = 0.00146954, No Iterations 5
DILUPBiCGStab:  Solving for Uy, Initial residual = 0.0655184, Final residual = 0.00449842, No Iterations 5
DILUPBiCGStab:  Solving for Uz, Initial residual = 0.47086, Final residual = 0.0165465, No Iterations 5
[INFO] MomentumPredictor: 2952.83 [ms]
[INFO] MatrixAssemblyPI: 341.524 [ms]
[INFO] AdjustPhi: 21.486 [ms]
[INFO] ConstrainPressure: 0.004 [ms]
[INFO] MatrixAssemblyPII: 98.487 [ms]
[OGL LOG][Proc: 0]: global_index_init: 0.204 [ms]
[OGL LOG][Proc: 0]p_local_coeffs: call_update: 0 [ms]
[OGL LOG][Proc: 0]p_non_local_coeffs: call_update: 0 [ms]
[OGL LOG][Proc: 0]p: update_local_matrix_data: 54.315 [ms]
[OGL LOG][Proc: 0]p: update_non_local_matrix_data: 0.217 [ms]
[OGL LOG][Proc: 0]p_matrix: call_update: 2.354 [ms]
[OGL LOG][Proc: 0]p_rhs: call_update: 3.275 [ms]
[OGL LOG][Proc: 0]p: init_precond: 0.076 [ms]
[OGL LOG][StoppingCriterion.H:237] Creating stopping criterion with minIter 1381 frequency 13
[OGL LOG][Proc: 0]p: generate_solver: 0.004 [ms]
[OGL LOG][Proc: 0]p: solve: 4036.19 [ms]
[OGL LOG][Proc: 0]p: copy_x_back: 10.208 [ms]
[OGL LOG][lduLduBase.H:330] 
Statistics:
	Time per iteration: 1763 [mu s]
	Time per residual norm calculation: 309.000000 [mu s]
	Time per iteration and DOF: 0.065296 [ns]
	Retrieve results bandwidth 2.644000 [GByte/s]
[OGL LOG][Proc: 0]p: solve_multi_gpu: 4057.37 [ms]
nonehipGKOCG:  Solving for p, Initial residual = 0.884143, Final residual = 9.29942e-05, No Iterations 2289
[INFO] SolveP: 4122.53 [ms]
time step continuity errors : sum local = 1.08261e-08, global = 5.22833e-22, cumulative = 1.51886e-20
[INFO] ContinuityError: 48.727 [ms]
[INFO] CorrectBoundary: 0.94 [ms]
[INFO] PISOStep: 4746.3 [ms]
[INFO] MatrixAssemblyPI: 334.28 [ms]
[INFO] AdjustPhi: 20.659 [ms]
[INFO] ConstrainPressure: 0.003 [ms]
[INFO] MatrixAssemblyPII: 99.17 [ms]
[OGL LOG][Proc: 0]: global_index_init: 0.204 [ms]
[OGL LOG][Proc: 0]p_local_coeffs: call_update: 0 [ms]
[OGL LOG][Proc: 0]p_non_local_coeffs: call_update: 0 [ms]
[OGL LOG][Proc: 0]p: update_local_matrix_data: 56.977 [ms]
[OGL LOG][Proc: 0]p: update_non_local_matrix_data: 0.231 [ms]
[OGL LOG][Proc: 0]p_matrix: call_update: 2.06 [ms]
[OGL LOG][Proc: 0]p_rhs: call_update: 2.851 [ms]
[OGL LOG][Proc: 0]p: init_precond: 0.065 [ms]
[OGL LOG][StoppingCriterion.H:237] Creating stopping criterion with minIter 1373 frequency 13
[OGL LOG][Proc: 0]p: generate_solver: 0.005 [ms]
[OGL LOG][Proc: 0]p: solve: 4078.06 [ms]
[OGL LOG][Proc: 0]p: copy_x_back: 10.498 [ms]
[OGL LOG][lduLduBase.H:330] 
Statistics:
	Time per iteration: 1771 [mu s]
	Time per residual norm calculation: 346.000000 [mu s]
	Time per iteration and DOF: 0.065593 [ns]
	Retrieve results bandwidth 2.571000 [GByte/s]
[OGL LOG][Proc: 0]p: solve_multi_gpu: 4108.67 [ms]
nonehipGKOCG:  Solving for p, Initial residual = 0.813594, Final residual = 7.8729e-05, No Iterations 2302
[INFO] SolveP: 4176.52 [ms]
time step continuity errors : sum local = 9.26784e-09, global = -1.08944e-21, cumulative = 1.40992e-20
[INFO] ContinuityError: 48.504 [ms]
[INFO] CorrectBoundary: 1.495 [ms]
[INFO] PISOStep: 4794.6 [ms]
[INFO] TimeStep: 12798.9 [ms]
ExecutionTime = 182.84 s  ClockTime = 152 s

Time = 0.002158

Courant Number mean: 0.0428475 max: 0.532251
[INFO] MatrixAssemblyU: 262.166 [ms]
DILUPBiCGStab:  Solving for Ux, Initial residual = 0.0166404, Final residual = 0.00136932, No Iterations 5
DILUPBiCGStab:  Solving for Uy, Initial residual = 0.0655664, Final residual = 0.00442752, No Iterations 5
DILUPBiCGStab:  Solving for Uz, Initial residual = 0.478987, Final residual = 0.016298, No Iterations 5
[INFO] MomentumPredictor: 2960.87 [ms]
[INFO] MatrixAssemblyPI: 342.116 [ms]
[INFO] AdjustPhi: 20.871 [ms]
[INFO] ConstrainPressure: 0.004 [ms]
[INFO] MatrixAssemblyPII: 98.756 [ms]
[OGL LOG][Proc: 0]: global_index_init: 0.036 [ms]
[OGL LOG][Proc: 0]p_local_coeffs: call_update: 0 [ms]
[OGL LOG][Proc: 0]p_non_local_coeffs: call_update: 0 [ms]
[OGL LOG][Proc: 0]p: update_local_matrix_data: 54.394 [ms]
[OGL LOG][Proc: 0]p: update_non_local_matrix_data: 0.231 [ms]
[OGL LOG][Proc: 0]p_matrix: call_update: 2.031 [ms]
[OGL LOG][Proc: 0]p_rhs: call_update: 2.437 [ms]
[OGL LOG][Proc: 0]p: init_precond: 0.07 [ms]
[OGL LOG][StoppingCriterion.H:237] Creating stopping criterion with minIter 1381 frequency 13
[OGL LOG][Proc: 0]p: generate_solver: 0.004 [ms]
[OGL LOG][Proc: 0]p: solve: 4065.47 [ms]
[OGL LOG][Proc: 0]p: copy_x_back: 9.394 [ms]
[OGL LOG][lduLduBase.H:330] 
Statistics:
	Time per iteration: 1766 [mu s]
	Time per residual norm calculation: 360.000000 [mu s]
	Time per iteration and DOF: 0.065407 [ns]
	Retrieve results bandwidth 2.874000 [GByte/s]
[OGL LOG][Proc: 0]p: solve_multi_gpu: 4090.79 [ms]
nonehipGKOCG:  Solving for p, Initial residual = 0.902366, Final residual = 8.28744e-05, No Iterations 2302
[INFO] SolveP: 4155.68 [ms]
time step continuity errors : sum local = 9.64837e-09, global = 3.74222e-22, cumulative = 1.44734e-20
[INFO] ContinuityError: 50.536 [ms]
[INFO] CorrectBoundary: 0.938 [ms]
[INFO] PISOStep: 4780.45 [ms]
[INFO] MatrixAssemblyPI: 335.4 [ms]
[INFO] AdjustPhi: 21.192 [ms]
[INFO] ConstrainPressure: 0.004 [ms]
[INFO] MatrixAssemblyPII: 98.119 [ms]
[OGL LOG][Proc: 0]: global_index_init: 0.234 [ms]
[OGL LOG][Proc: 0]p_local_coeffs: call_update: 0 [ms]
[OGL LOG][Proc: 0]p_non_local_coeffs: call_update: 0 [ms]
[OGL LOG][Proc: 0]p: update_local_matrix_data: 57.463 [ms]
[OGL LOG][Proc: 0]p: update_non_local_matrix_data: 0.239 [ms]
[OGL LOG][Proc: 0]p_matrix: call_update: 2.439 [ms]
[OGL LOG][Proc: 0]p_rhs: call_update: 2.687 [ms]
[OGL LOG][Proc: 0]p: init_precond: 0.07 [ms]
[OGL LOG][StoppingCriterion.H:237] Creating stopping criterion with minIter 1381 frequency 15
[OGL LOG][Proc: 0]p: generate_solver: 0.005 [ms]
[OGL LOG][Proc: 0]p: solve: 4074.58 [ms]
[OGL LOG][Proc: 0]p: copy_x_back: 9.327 [ms]
[OGL LOG][lduLduBase.H:330] 
Statistics:
	Time per iteration: 1774 [mu s]
	Time per residual norm calculation: 347.000000 [mu s]
	Time per iteration and DOF: 0.065704 [ns]
	Retrieve results bandwidth 2.894000 [GByte/s]
[OGL LOG][Proc: 0]p: solve_multi_gpu: 4095.54 [ms]
nonehipGKOCG:  Solving for p, Initial residual = 0.844265, Final residual = 9.04514e-05, No Iterations 2296
[INFO] SolveP: 4163.57 [ms]
time step continuity errors : sum local = 1.04568e-08, global = 4.30971e-22, cumulative = 1.49044e-20
[INFO] ContinuityError: 50.785 [ms]
[INFO] CorrectBoundary: 1.505 [ms]
[INFO] PISOStep: 4782.72 [ms]
[INFO] TimeStep: 12830.4 [ms]
ExecutionTime = 198.51 s  ClockTime = 165 s

Time = 0.002324

Courant Number mean: 0.0440892 max: 0.489794
[INFO] MatrixAssemblyU: 261.567 [ms]
DILUPBiCGStab:  Solving for Ux, Initial residual = 0.0164091, Final residual = 0.00134462, No Iterations 5
DILUPBiCGStab:  Solving for Uy, Initial residual = 0.0604361, Final residual = 0.00393012, No Iterations 5
DILUPBiCGStab:  Solving for Uz, Initial residual = 0.469684, Final residual = 0.0158276, No Iterations 5
[INFO] MomentumPredictor: 2960.55 [ms]
[INFO] MatrixAssemblyPI: 342.77 [ms]
[INFO] AdjustPhi: 24.329 [ms]
[INFO] ConstrainPressure: 0.004 [ms]
[INFO] MatrixAssemblyPII: 98.669 [ms]
[OGL LOG][Proc: 0]: global_index_init: 0.077 [ms]
[OGL LOG][Proc: 0]p_local_coeffs: call_update: 0 [ms]
[OGL LOG][Proc: 0]p_non_local_coeffs: call_update: 0 [ms]
[OGL LOG][Proc: 0]p: update_local_matrix_data: 66.68 [ms]
[OGL LOG][Proc: 0]p: update_non_local_matrix_data: 0.261 [ms]
[OGL LOG][Proc: 0]p_matrix: call_update: 2.025 [ms]
[OGL LOG][Proc: 0]p_rhs: call_update: 2.546 [ms]
[OGL LOG][Proc: 0]p: init_precond: 0.057 [ms]
[OGL LOG][StoppingCriterion.H:237] Creating stopping criterion with minIter 1377 frequency 13
[OGL LOG][Proc: 0]p: generate_solver: 0.004 [ms]
[OGL LOG][Proc: 0]p: solve: 4079.71 [ms]
[OGL LOG][Proc: 0]p: copy_x_back: 9.582 [ms]
[OGL LOG][lduLduBase.H:330] 
Statistics:
	Time per iteration: 1772 [mu s]
	Time per residual norm calculation: 353.000000 [mu s]
	Time per iteration and DOF: 0.065630 [ns]
	Retrieve results bandwidth 2.817000 [GByte/s]
[OGL LOG][Proc: 0]p: solve_multi_gpu: 4109.44 [ms]
nonehipGKOCG:  Solving for p, Initial residual = 0.886484, Final residual = 8.79169e-05, No Iterations 2302
[INFO] SolveP: 4186.78 [ms]
time step continuity errors : sum local = 1.06546e-08, global = 2.92578e-22, cumulative = 1.5197e-20
[INFO] ContinuityError: 48.53 [ms]
[INFO] CorrectBoundary: 1.176 [ms]
[INFO] PISOStep: 4814.74 [ms]
[INFO] MatrixAssemblyPI: 334.076 [ms]
[INFO] AdjustPhi: 20.389 [ms]
[INFO] ConstrainPressure: 0.004 [ms]
[INFO] MatrixAssemblyPII: 98.302 [ms]
[OGL LOG][Proc: 0]: global_index_init: 0.19 [ms]
[OGL LOG][Proc: 0]p_local_coeffs: call_update: 0 [ms]
[OGL LOG][Proc: 0]p_non_local_coeffs: call_update: 0 [ms]
[OGL LOG][Proc: 0]p: update_local_matrix_data: 55.93 [ms]
[OGL LOG][Proc: 0]p: update_non_local_matrix_data: 0.241 [ms]
[OGL LOG][Proc: 0]p_matrix: call_update: 2.282 [ms]
[OGL LOG][Proc: 0]p_rhs: call_update: 2.114 [ms]
[OGL LOG][Proc: 0]p: init_precond: 0.069 [ms]
[OGL LOG][StoppingCriterion.H:237] Creating stopping criterion with minIter 1381 frequency 13
[OGL LOG][Proc: 0]p: generate_solver: 0.005 [ms]
[OGL LOG][Proc: 0]p: solve: 4055.51 [ms]
[OGL LOG][Proc: 0]p: copy_x_back: 9.325 [ms]
[OGL LOG][lduLduBase.H:330] 
Statistics:
	Time per iteration: 1761 [mu s]
	Time per residual norm calculation: 350.000000 [mu s]
	Time per iteration and DOF: 0.065222 [ns]
	Retrieve results bandwidth 2.895000 [GByte/s]
[OGL LOG][Proc: 0]p: solve_multi_gpu: 4074.93 [ms]
nonehipGKOCG:  Solving for p, Initial residual = 0.814776, Final residual = 8.29353e-05, No Iterations 2302
[INFO] SolveP: 4141.84 [ms]
time step continuity errors : sum local = 1.01491e-08, global = 1.76738e-21, cumulative = 1.69644e-20
[INFO] ContinuityError: 51.496 [ms]
[INFO] CorrectBoundary: 2.409 [ms]
[INFO] PISOStep: 4763.03 [ms]
[INFO] TimeStep: 12844.2 [ms]
ExecutionTime = 214.2 s  ClockTime = 178 s

Time = 0.00249

Courant Number mean: 0.0453247 max: 0.540993
[INFO] MatrixAssemblyU: 261.614 [ms]
DILUPBiCGStab:  Solving for Ux, Initial residual = 0.0156583, Final residual = 0.00124695, No Iterations 5
DILUPBiCGStab:  Solving for Uy, Initial residual = 0.0613175, Final residual = 0.00392746, No Iterations 5
DILUPBiCGStab:  Solving for Uz, Initial residual = 0.480069, Final residual = 0.0157375, No Iterations 5
[INFO] MomentumPredictor: 2958.95 [ms]
[INFO] MatrixAssemblyPI: 342.074 [ms]
[INFO] AdjustPhi: 21.739 [ms]
[INFO] ConstrainPressure: 0.005 [ms]
[INFO] MatrixAssemblyPII: 98.782 [ms]
[OGL LOG][Proc: 0]: global_index_init: 0.039 [ms]
[OGL LOG][Proc: 0]p_local_coeffs: call_update: 0 [ms]
[OGL LOG][Proc: 0]p_non_local_coeffs: call_update: 0 [ms]
[OGL LOG][Proc: 0]p: update_local_matrix_data: 61.688 [ms]
[OGL LOG][Proc: 0]p: update_non_local_matrix_data: 0.243 [ms]
[OGL LOG][Proc: 0]p_matrix: call_update: 2.308 [ms]
[OGL LOG][Proc: 0]p_rhs: call_update: 2.708 [ms]
[OGL LOG][Proc: 0]p: init_precond: 0.066 [ms]
[OGL LOG][StoppingCriterion.H:237] Creating stopping criterion with minIter 1381 frequency 13
[OGL LOG][Proc: 0]p: generate_solver: 0.005 [ms]
[OGL LOG][Proc: 0]p: solve: 3911.35 [ms]
[OGL LOG][Proc: 0]p: copy_x_back: 8.988 [ms]
[OGL LOG][lduLduBase.H:330] 
Statistics:
	Time per iteration: 1769 [mu s]
	Time per residual norm calculation: 312.000000 [mu s]
	Time per iteration and DOF: 0.065519 [ns]
	Retrieve results bandwidth 3.004000 [GByte/s]
[OGL LOG][Proc: 0]p: solve_multi_gpu: 3928.79 [ms]
nonehipGKOCG:  Solving for p, Initial residual = 0.903186, Final residual = 9.59284e-05, No Iterations 2211
[INFO] SolveP: 4001.47 [ms]
time step continuity errors : sum local = 1.16687e-08, global = 3.44567e-24, cumulative = 1.69678e-20
[INFO] ContinuityError: 50.954 [ms]
[INFO] CorrectBoundary: 2.892 [ms]
[INFO] PISOStep: 4629.6 [ms]
[INFO] MatrixAssemblyPI: 334.65 [ms]
[INFO] AdjustPhi: 19.687 [ms]
[INFO] ConstrainPressure: 0.004 [ms]
[INFO] MatrixAssemblyPII: 98.02 [ms]
[OGL LOG][Proc: 0]: global_index_init: 0.178 [ms]
[OGL LOG][Proc: 0]p_local_coeffs: call_update: 0 [ms]
[OGL LOG][Proc: 0]p_non_local_coeffs: call_update: 0 [ms]
[OGL LOG][Proc: 0]p: update_local_matrix_data: 53.421 [ms]
[OGL LOG][Proc: 0]p: update_non_local_matrix_data: 0.249 [ms]
[OGL LOG][Proc: 0]p_matrix: call_update: 2.249 [ms]
[OGL LOG][Proc: 0]p_rhs: call_update: 2.253 [ms]
[OGL LOG][Proc: 0]p: init_precond: 0.068 [ms]
[OGL LOG][StoppingCriterion.H:237] Creating stopping criterion with minIter 1326 frequency 13
[OGL LOG][Proc: 0]p: generate_solver: 0.005 [ms]
[OGL LOG][Proc: 0]p: solve: 3973.64 [ms]
[OGL LOG][Proc: 0]p: copy_x_back: 9.492 [ms]
[OGL LOG][lduLduBase.H:330] 
Statistics:
	Time per iteration: 1766 [mu s]
	Time per residual norm calculation: 340.000000 [mu s]
	Time per iteration and DOF: 0.065407 [ns]
	Retrieve results bandwidth 2.844000 [GByte/s]
[OGL LOG][Proc: 0]p: solve_multi_gpu: 3995.88 [ms]
nonehipGKOCG:  Solving for p, Initial residual = 0.842108, Final residual = 9.77842e-05, No Iterations 2250
[INFO] SolveP: 4060.02 [ms]
time step continuity errors : sum local = 1.18271e-08, global = 1.16393e-21, cumulative = 1.81317e-20
[INFO] ContinuityError: 46.709 [ms]
[INFO] CorrectBoundary: 3.007 [ms]
[INFO] PISOStep: 4676.95 [ms]
[INFO] TimeStep: 12571.2 [ms]
ExecutionTime = 229.51 s  ClockTime = 190 s

Time = 0.002656

Courant Number mean: 0.0464224 max: 0.492863
[INFO] MatrixAssemblyU: 259.2 [ms]
DILUPBiCGStab:  Solving for Ux, Initial residual = 0.0156435, Final residual = 0.001241, No Iterations 5
DILUPBiCGStab:  Solving for Uy, Initial residual = 0.0572815, Final residual = 0.0035144, No Iterations 5
DILUPBiCGStab:  Solving for Uz, Initial residual = 0.47397, Final residual = 0.0153966, No Iterations 5
[INFO] MomentumPredictor: 2963.98 [ms]
[INFO] MatrixAssemblyPI: 342.725 [ms]
[INFO] AdjustPhi: 20.906 [ms]
[INFO] ConstrainPressure: 0.004 [ms]
[INFO] MatrixAssemblyPII: 98.331 [ms]
[OGL LOG][Proc: 0]: global_index_init: 0.146 [ms]
[OGL LOG][Proc: 0]p_local_coeffs: call_update: 0 [ms]
[OGL LOG][Proc: 0]p_non_local_coeffs: call_update: 0 [ms]
[OGL LOG][Proc: 0]p: update_local_matrix_data: 56.638 [ms]
[OGL LOG][Proc: 0]p: update_non_local_matrix_data: 0.228 [ms]
[OGL LOG][Proc: 0]p_matrix: call_update: 2.238 [ms]
[OGL LOG][Proc: 0]p_rhs: call_update: 3.244 [ms]
[OGL LOG][Proc: 0]p: init_precond: 0.06 [ms]
[OGL LOG][StoppingCriterion.H:237] Creating stopping criterion with minIter 1350 frequency 13
[OGL LOG][Proc: 0]p: generate_solver: 0.005 [ms]
[OGL LOG][Proc: 0]p: solve: 4085.87 [ms]
[OGL LOG][Proc: 0]p: copy_x_back: 9.193 [ms]
[OGL LOG][lduLduBase.H:330] 
Statistics:
	Time per iteration: 1774 [mu s]
	Time per residual norm calculation: 349.000000 [mu s]
	Time per iteration and DOF: 0.065704 [ns]
	Retrieve results bandwidth 2.937000 [GByte/s]
[OGL LOG][Proc: 0]p: solve_multi_gpu: 4105.76 [ms]
nonehipGKOCG:  Solving for p, Initial residual = 0.889448, Final residual = 8.4813e-05, No Iterations 2302
[INFO] SolveP: 4172.94 [ms]
time step continuity errors : sum local = 1.07289e-08, global = 1.29629e-21, cumulative = 1.9428e-20
[INFO] ContinuityError: 51.339 [ms]
[INFO] CorrectBoundary: 3.111 [ms]
[INFO] PISOStep: 4800.92 [ms]
[INFO] MatrixAssemblyPI: 335.084 [ms]
[INFO] AdjustPhi: 21.529 [ms]
[INFO] ConstrainPressure: 0.004 [ms]
[INFO] MatrixAssemblyPII: 99.063 [ms]
[OGL LOG][Proc: 0]: global_index_init: 0.181 [ms]
[OGL LOG][Proc: 0]p_local_coeffs: call_update: 0 [ms]
[OGL LOG][Proc: 0]p_non_local_coeffs: call_update: 0 [ms]
[OGL LOG][Proc: 0]p: update_local_matrix_data: 69.377 [ms]
[OGL LOG][Proc: 0]p: update_non_local_matrix_data: 0.226 [ms]
[OGL LOG][Proc: 0]p_matrix: call_update: 2.198 [ms]
[OGL LOG][Proc: 0]p_rhs: call_update: 2.781 [ms]
[OGL LOG][Proc: 0]p: init_precond: 0.063 [ms]
[OGL LOG][StoppingCriterion.H:237] Creating stopping criterion with minIter 1381 frequency 13
[OGL LOG][Proc: 0]p: generate_solver: 0.004 [ms]
[OGL LOG][Proc: 0]p: solve: 4083.72 [ms]
[OGL LOG][Proc: 0]p: copy_x_back: 10.223 [ms]
[OGL LOG][lduLduBase.H:330] 
Statistics:
	Time per iteration: 1773 [mu s]
	Time per residual norm calculation: 352.000000 [mu s]
	Time per iteration and DOF: 0.065667 [ns]
	Retrieve results bandwidth 2.641000 [GByte/s]
[OGL LOG][Proc: 0]p: solve_multi_gpu: 4104.88 [ms]
nonehipGKOCG:  Solving for p, Initial residual = 0.81676, Final residual = 8.01477e-05, No Iterations 2302
[INFO] SolveP: 4184.92 [ms]
time step continuity errors : sum local = 1.02248e-08, global = 3.43233e-22, cumulative = 1.97713e-20
[INFO] ContinuityError: 48.383 [ms]
[INFO] CorrectBoundary: 2.966 [ms]
[INFO] PISOStep: 4802.49 [ms]
[INFO] TimeStep: 12872.9 [ms]
ExecutionTime = 245.22 s  ClockTime = 203 s

Time = 0.002822

Courant Number mean: 0.0475331 max: 0.551148
[INFO] MatrixAssemblyU: 259.391 [ms]
DILUPBiCGStab:  Solving for Ux, Initial residual = 0.0150671, Final residual = 0.00114943, No Iterations 5
DILUPBiCGStab:  Solving for Uy, Initial residual = 0.0586025, Final residual = 0.00355329, No Iterations 5
DILUPBiCGStab:  Solving for Uz, Initial residual = 0.485335, Final residual = 0.0154183, No Iterations 5
[INFO] MomentumPredictor: 2967.87 [ms]
[INFO] MatrixAssemblyPI: 343.977 [ms]
[INFO] AdjustPhi: 18.621 [ms]
[INFO] ConstrainPressure: 0.005 [ms]
[INFO] MatrixAssemblyPII: 97.368 [ms]
[OGL LOG][Proc: 0]: global_index_init: 0.132 [ms]
[OGL LOG][Proc: 0]p_local_coeffs: call_update: 0 [ms]
[OGL LOG][Proc: 0]p_non_local_coeffs: call_update: 0 [ms]
[OGL LOG][Proc: 0]p: update_local_matrix_data: 53.609 [ms]
[OGL LOG][Proc: 0]p: update_non_local_matrix_data: 0.221 [ms]
[OGL LOG][Proc: 0]p_matrix: call_update: 2.022 [ms]
[OGL LOG][Proc: 0]p_rhs: call_update: 3.033 [ms]
[OGL LOG][Proc: 0]p: init_precond: 0.061 [ms]
[OGL LOG][StoppingCriterion.H:237] Creating stopping criterion with minIter 1381 frequency 13
[OGL LOG][Proc: 0]p: generate_solver: 0.005 [ms]
[OGL LOG][Proc: 0]p: solve: 4080.91 [ms]
[OGL LOG][Proc: 0]p: copy_x_back: 9.872 [ms]
[OGL LOG][lduLduBase.H:330] 
Statistics:
	Time per iteration: 1772 [mu s]
	Time per residual norm calculation: 327.000000 [mu s]
	Time per iteration and DOF: 0.065630 [ns]
	Retrieve results bandwidth 2.735000 [GByte/s]
[OGL LOG][Proc: 0]p: solve_multi_gpu: 4105.89 [ms]
nonehipGKOCG:  Solving for p, Initial residual = 0.904712, Final residual = 8.26742e-05, No Iterations 2302
[INFO] SolveP: 4170 [ms]
time step continuity errors : sum local = 1.05454e-08, global = 8.3405e-22, cumulative = 2.06053e-20
[INFO] ContinuityError: 50.168 [ms]
[INFO] CorrectBoundary: 2.277 [ms]
[INFO] PISOStep: 4795.01 [ms]
[INFO] MatrixAssemblyPI: 334.443 [ms]
[INFO] AdjustPhi: 24.468 [ms]
[INFO] ConstrainPressure: 0.005 [ms]
[INFO] MatrixAssemblyPII: 98.051 [ms]
[OGL LOG][Proc: 0]: global_index_init: 0.253 [ms]
[OGL LOG][Proc: 0]p_local_coeffs: call_update: 0 [ms]
[OGL LOG][Proc: 0]p_non_local_coeffs: call_update: 0 [ms]
[OGL LOG][Proc: 0]p: update_local_matrix_data: 69.319 [ms]
[OGL LOG][Proc: 0]p: update_non_local_matrix_data: 0.244 [ms]
[OGL LOG][Proc: 0]p_matrix: call_update: 2.321 [ms]
[OGL LOG][Proc: 0]p_rhs: call_update: 2.336 [ms]
[OGL LOG][Proc: 0]p: init_precond: 0.063 [ms]
[OGL LOG][StoppingCriterion.H:237] Creating stopping criterion with minIter 1381 frequency 13
[OGL LOG][Proc: 0]p: generate_solver: 0.006 [ms]
[OGL LOG][Proc: 0]p: solve: 4072.24 [ms]
[OGL LOG][Proc: 0]p: copy_x_back: 10.759 [ms]
[OGL LOG][lduLduBase.H:330] 
Statistics:
	Time per iteration: 1769 [mu s]
	Time per residual norm calculation: 347.000000 [mu s]
	Time per iteration and DOF: 0.065519 [ns]
	Retrieve results bandwidth 2.509000 [GByte/s]
[OGL LOG][Proc: 0]p: solve_multi_gpu: 4095.77 [ms]
nonehipGKOCG:  Solving for p, Initial residual = 0.840528, Final residual = 8.11059e-05, No Iterations 2302
[INFO] SolveP: 4175.89 [ms]
time step continuity errors : sum local = 1.02996e-08, global = 9.69418e-22, cumulative = 2.15747e-20
[INFO] ContinuityError: 50.521 [ms]
[INFO] CorrectBoundary: 2.55 [ms]
[INFO] PISOStep: 4797.41 [ms]
[INFO] TimeStep: 12864.6 [ms]
ExecutionTime = 260.92 s  ClockTime = 216 s

Time = 0.002988

Courant Number mean: 0.0485163 max: 0.496215
[INFO] MatrixAssemblyU: 261.306 [ms]
DILUPBiCGStab:  Solving for Ux, Initial residual = 0.0151923, Final residual = 0.00115565, No Iterations 5
DILUPBiCGStab:  Solving for Uy, Initial residual = 0.0555239, Final residual = 0.00320615, No Iterations 5
DILUPBiCGStab:  Solving for Uz, Initial residual = 0.481647, Final residual = 0.0151941, No Iterations 5
[INFO] MomentumPredictor: 2966.9 [ms]
[INFO] MatrixAssemblyPI: 341.755 [ms]
[INFO] AdjustPhi: 22.569 [ms]
[INFO] ConstrainPressure: 0.004 [ms]
[INFO] MatrixAssemblyPII: 97.758 [ms]
[OGL LOG][Proc: 0]: global_index_init: 0.215 [ms]
[OGL LOG][Proc: 0]p_local_coeffs: call_update: 0 [ms]
[OGL LOG][Proc: 0]p_non_local_coeffs: call_update: 0 [ms]
[OGL LOG][Proc: 0]p: update_local_matrix_data: 60.091 [ms]
[OGL LOG][Proc: 0]p: update_non_local_matrix_data: 0.227 [ms]
[OGL LOG][Proc: 0]p_matrix: call_update: 2.225 [ms]
[OGL LOG][Proc: 0]p_rhs: call_update: 2.166 [ms]
[OGL LOG][Proc: 0]p: init_precond: 0.06 [ms]
[OGL LOG][StoppingCriterion.H:237] Creating stopping criterion with minIter 1381 frequency 13
[OGL LOG][Proc: 0]p: generate_solver: 0.005 [ms]
[OGL LOG][Proc: 0]p: solve: 4049.27 [ms]
[OGL LOG][Proc: 0]p: copy_x_back: 9.682 [ms]
[OGL LOG][lduLduBase.H:330] 
Statistics:
	Time per iteration: 1759 [mu s]
	Time per residual norm calculation: 345.000000 [mu s]
	Time per iteration and DOF: 0.065148 [ns]
	Retrieve results bandwidth 2.788000 [GByte/s]
[OGL LOG][Proc: 0]p: solve_multi_gpu: 4066.74 [ms]
nonehipGKOCG:  Solving for p, Initial residual = 0.894184, Final residual = 8.60917e-05, No Iterations 2302
[INFO] SolveP: 4137.53 [ms]
time step continuity errors : sum local = 1.14209e-08, global = 1.40144e-22, cumulative = 2.17149e-20
[INFO] ContinuityError: 50.476 [ms]
[INFO] CorrectBoundary: 1.023 [ms]
[INFO] PISOStep: 4762.64 [ms]
[INFO] MatrixAssemblyPI: 336.377 [ms]
[INFO] AdjustPhi: 19.042 [ms]
[INFO] ConstrainPressure: 0.004 [ms]
[INFO] MatrixAssemblyPII: 97.919 [ms]
[OGL LOG][Proc: 0]: global_index_init: 0.033 [ms]
[OGL LOG][Proc: 0]p_local_coeffs: call_update: 0 [ms]
[OGL LOG][Proc: 0]p_non_local_coeffs: call_update: 0 [ms]
[OGL LOG][Proc: 0]p: update_local_matrix_data: 54.795 [ms]
[OGL LOG][Proc: 0]p: update_non_local_matrix_data: 0.228 [ms]
[OGL LOG][Proc: 0]p_matrix: call_update: 2.235 [ms]
[OGL LOG][Proc: 0]p_rhs: call_update: 3.159 [ms]
[OGL LOG][Proc: 0]p: init_precond: 0.059 [ms]
[OGL LOG][StoppingCriterion.H:237] Creating stopping criterion with minIter 1381 frequency 13
[OGL LOG][Proc: 0]p: generate_solver: 0.005 [ms]
[OGL LOG][Proc: 0]p: solve: 4083.65 [ms]
[OGL LOG][Proc: 0]p: copy_x_back: 9.3 [ms]
[OGL LOG][lduLduBase.H:330] 
Statistics:
	Time per iteration: 1773 [mu s]
	Time per residual norm calculation: 352.000000 [mu s]
	Time per iteration and DOF: 0.065667 [ns]
	Retrieve results bandwidth 2.903000 [GByte/s]
[OGL LOG][Proc: 0]p: solve_multi_gpu: 4104.97 [ms]
nonehipGKOCG:  Solving for p, Initial residual = 0.820059, Final residual = 8.4279e-05, No Iterations 2302
[INFO] SolveP: 4171.02 [ms]
time step continuity errors : sum local = 1.12629e-08, global = -2.93148e-22, cumulative = 2.14217e-20
[INFO] ContinuityError: 55.459 [ms]
[INFO] CorrectBoundary: 4.057 [ms]
[INFO] PISOStep: 4797.37 [ms]
[INFO] TimeStep: 12832.2 [ms]
ExecutionTime = 276.58 s  ClockTime = 229 s

Time = 0.003154

Courant Number mean: 0.0495292 max: 0.562892
[INFO] MatrixAssemblyU: 259.467 [ms]
DILUPBiCGStab:  Solving for Ux, Initial residual = 0.014789, Final residual = 0.00107254, No Iterations 5
DILUPBiCGStab:  Solving for Uy, Initial residual = 0.057133, Final residual = 0.00327051, No Iterations 5
DILUPBiCGStab:  Solving for Uz, Initial residual = 0.493417, Final residual = 0.0152796, No Iterations 5
[INFO] MomentumPredictor: 2960.52 [ms]
[INFO] MatrixAssemblyPI: 342.545 [ms]
[INFO] AdjustPhi: 22.892 [ms]
[INFO] ConstrainPressure: 0.004 [ms]
[INFO] MatrixAssemblyPII: 97.917 [ms]
[OGL LOG][Proc: 0]: global_index_init: 0.05 [ms]
[OGL LOG][Proc: 0]p_local_coeffs: call_update: 0 [ms]
[OGL LOG][Proc: 0]p_non_local_coeffs: call_update: 0 [ms]
[OGL LOG][Proc: 0]p: update_local_matrix_data: 63.342 [ms]
[OGL LOG][Proc: 0]p: update_non_local_matrix_data: 0.23 [ms]
[OGL LOG][Proc: 0]p_matrix: call_update: 3.042 [ms]
[OGL LOG][Proc: 0]p_rhs: call_update: 2.616 [ms]
[OGL LOG][Proc: 0]p: init_precond: 0.061 [ms]
[OGL LOG][StoppingCriterion.H:237] Creating stopping criterion with minIter 1381 frequency 13
[OGL LOG][Proc: 0]p: generate_solver: 0.005 [ms]
[OGL LOG][Proc: 0]p: solve: 4038.24 [ms]
[OGL LOG][Proc: 0]p: copy_x_back: 9.265 [ms]
[OGL LOG][lduLduBase.H:330] 
Statistics:
	Time per iteration: 1754 [mu s]
	Time per residual norm calculation: 350.000000 [mu s]
	Time per iteration and DOF: 0.064963 [ns]
	Retrieve results bandwidth 2.914000 [GByte/s]
[OGL LOG][Proc: 0]p: solve_multi_gpu: 4058.41 [ms]
nonehipGKOCG:  Solving for p, Initial residual = 0.907451, Final residual = 8.58311e-05, No Iterations 2302
[INFO] SolveP: 4132.4 [ms]
time step continuity errors : sum local = 1.15434e-08, global = 1.5432e-21, cumulative = 2.29649e-20
[INFO] ContinuityError: 50.463 [ms]
[INFO] CorrectBoundary: 1.348 [ms]
[INFO] PISOStep: 4759.66 [ms]
[INFO] MatrixAssemblyPI: 334.906 [ms]
[INFO] AdjustPhi: 20.086 [ms]
[INFO] ConstrainPressure: 0.005 [ms]
[INFO] MatrixAssemblyPII: 98.29 [ms]
[OGL LOG][Proc: 0]: global_index_init: 0.107 [ms]
[OGL LOG][Proc: 0]p_local_coeffs: call_update: 0 [ms]
[OGL LOG][Proc: 0]p_non_local_coeffs: call_update: 0 [ms]
[OGL LOG][Proc: 0]p: update_local_matrix_data: 55.623 [ms]
[OGL LOG][Proc: 0]p: update_non_local_matrix_data: 0.233 [ms]
[OGL LOG][Proc: 0]p_matrix: call_update: 2.205 [ms]
[OGL LOG][Proc: 0]p_rhs: call_update: 2.327 [ms]
[OGL LOG][Proc: 0]p: init_precond: 0.082 [ms]
[OGL LOG][StoppingCriterion.H:237] Creating stopping criterion with minIter 1381 frequency 13
[OGL LOG][Proc: 0]p: generate_solver: 0.004 [ms]
[OGL LOG][Proc: 0]p: solve: 4081.4 [ms]
[OGL LOG][Proc: 0]p: copy_x_back: 9.514 [ms]
[OGL LOG][lduLduBase.H:330] 
Statistics:
	Time per iteration: 1772 [mu s]
	Time per residual norm calculation: 353.000000 [mu s]
	Time per iteration and DOF: 0.065630 [ns]
	Retrieve results bandwidth 2.837000 [GByte/s]
[OGL LOG][Proc: 0]p: solve_multi_gpu: 4102.05 [ms]
nonehipGKOCG:  Solving for p, Initial residual = 0.840446, Final residual = 8.48822e-05, No Iterations 2302
[INFO] SolveP: 4168.08 [ms]
time step continuity errors : sum local = 1.13777e-08, global = 1.66525e-22, cumulative = 2.31315e-20
[INFO] ContinuityError: 49.657 [ms]
[INFO] CorrectBoundary: 1.426 [ms]
[INFO] PISOStep: 4784.46 [ms]
[INFO] TimeStep: 12808.6 [ms]
ExecutionTime = 292.21 s  ClockTime = 242 s

Time = 0.00332

Courant Number mean: 0.050419 max: 0.499824
[INFO] MatrixAssemblyU: 262.413 [ms]
DILUPBiCGStab:  Solving for Ux, Initial residual = 0.0150184, Final residual = 0.00108483, No Iterations 5
DILUPBiCGStab:  Solving for Uy, Initial residual = 0.0548265, Final residual = 0.00297799, No Iterations 5
DILUPBiCGStab:  Solving for Uz, Initial residual = 0.491686, Final residual = 0.0151389, No Iterations 5
[INFO] MomentumPredictor: 2960.34 [ms]
[INFO] MatrixAssemblyPI: 344.181 [ms]
[INFO] AdjustPhi: 21.365 [ms]
[INFO] ConstrainPressure: 0.004 [ms]
[INFO] MatrixAssemblyPII: 97.987 [ms]
[OGL LOG][Proc: 0]: global_index_init: 0.133 [ms]
[OGL LOG][Proc: 0]p_local_coeffs: call_update: 0 [ms]
[OGL LOG][Proc: 0]p_non_local_coeffs: call_update: 0 [ms]
[OGL LOG][Proc: 0]p: update_local_matrix_data: 72.902 [ms]
[OGL LOG][Proc: 0]p: update_non_local_matrix_data: 0.228 [ms]
[OGL LOG][Proc: 0]p_matrix: call_update: 2.156 [ms]
[OGL LOG][Proc: 0]p_rhs: call_update: 2.47 [ms]
[OGL LOG][Proc: 0]p: init_precond: 0.061 [ms]
[OGL LOG][StoppingCriterion.H:237] Creating stopping criterion with minIter 1381 frequency 13
[OGL LOG][Proc: 0]p: generate_solver: 0.005 [ms]
[OGL LOG][Proc: 0]p: solve: 4072.58 [ms]
[OGL LOG][Proc: 0]p: copy_x_back: 9.887 [ms]
[OGL LOG][lduLduBase.H:330] 
Statistics:
	Time per iteration: 1769 [mu s]
	Time per residual norm calculation: 338.000000 [mu s]
	Time per iteration and DOF: 0.065519 [ns]
	Retrieve results bandwidth 2.730000 [GByte/s]
[OGL LOG][Proc: 0]p: solve_multi_gpu: 4096.12 [ms]
nonehipGKOCG:  Solving for p, Initial residual = 0.899766, Final residual = 8.8807e-05, No Iterations 2302
[INFO] SolveP: 4179.61 [ms]
time step continuity errors : sum local = 1.24125e-08, global = 2.66308e-22, cumulative = 2.33978e-20
[INFO] ContinuityError: 49.832 [ms]
[INFO] CorrectBoundary: 1.305 [ms]
[INFO] PISOStep: 4808.85 [ms]
[INFO] MatrixAssemblyPI: 336.067 [ms]
[INFO] AdjustPhi: 19.123 [ms]
[INFO] ConstrainPressure: 0.004 [ms]
[INFO] MatrixAssemblyPII: 97.872 [ms]
[OGL LOG][Proc: 0]: global_index_init: 0.035 [ms]
[OGL LOG][Proc: 0]p_local_coeffs: call_update: 0 [ms]
[OGL LOG][Proc: 0]p_non_local_coeffs: call_update: 0 [ms]
[OGL LOG][Proc: 0]p: update_local_matrix_data: 55.905 [ms]
[OGL LOG][Proc: 0]p: update_non_local_matrix_data: 0.22 [ms]
[OGL LOG][Proc: 0]p_matrix: call_update: 3.008 [ms]
[OGL LOG][Proc: 0]p_rhs: call_update: 1.959 [ms]
[OGL LOG][Proc: 0]p: init_precond: 0.06 [ms]
[OGL LOG][StoppingCriterion.H:237] Creating stopping criterion with minIter 1381 frequency 13
[OGL LOG][Proc: 0]p: generate_solver: 0.005 [ms]
[OGL LOG][Proc: 0]p: solve: 4076.6 [ms]
[OGL LOG][Proc: 0]p: copy_x_back: 8.942 [ms]
[OGL LOG][lduLduBase.H:330] 
Statistics:
	Time per iteration: 1770 [mu s]
	Time per residual norm calculation: 312.000000 [mu s]
	Time per iteration and DOF: 0.065556 [ns]
	Retrieve results bandwidth 3.019000 [GByte/s]
[OGL LOG][Proc: 0]p: solve_multi_gpu: 4096.26 [ms]
nonehipGKOCG:  Solving for p, Initial residual = 0.824708, Final residual = 8.79189e-05, No Iterations 2302
[INFO] SolveP: 4163.11 [ms]
time step continuity errors : sum local = 1.23677e-08, global = 2.13846e-21, cumulative = 2.55362e-20
[INFO] ContinuityError: 49.773 [ms]
[INFO] CorrectBoundary: 0.978 [ms]
[INFO] PISOStep: 4778.6 [ms]
[INFO] TimeStep: 12856.1 [ms]
ExecutionTime = 307.91 s  ClockTime = 255 s

End

Finalising parallel run
