/*---------------------------------------------------------------------------*\
| =========                 |                                                 |
| \\      /  F ield         | OpenFOAM: The Open Source CFD Toolbox           |
|  \\    /   O peration     | Version:  2306                                  |
|   \\  /    A nd           | Website:  www.openfoam.com                      |
|    \\/     M anipulation  |                                                 |
\*---------------------------------------------------------------------------*/
Build  : a6e826bd55-20230630 OPENFOAM=2306 version=v2306
Arch   : "LSB;label=32;scalar=64"
Exec   : icoFoam -parallel -case /tmp/lidDrivenCavity3D/workspace/9ee10821e4230ddfcc3d8e673a93e9bd/case
Date   : Dec 09 2023
Time   : 10:06:46
Host   : nla-gpu2.ianm.kit.edu
PID    : 271036
I/O    : uncollated
Case   : /tmp/lidDrivenCavity3D/workspace/9ee10821e4230ddfcc3d8e673a93e9bd/case
nProcs : 32
Hosts  :
(
    (nla-gpu2.ianm.kit.edu 32)
)
Pstream initialized with:
    floatTransfer      : false
    nProcsSimpleSum    : 0
    nonBlockingExchange: 0 (tuning: 0)
    exchange algorithm : -1
    commsType          : nonBlocking
    polling iterations : 0
trapFpe: Floating point exception trapping enabled (FOAM_SIGFPE).
fileModificationChecking : Monitoring run-time modified files using timeStampMaster (fileModificationSkew 5, maxFileModificationPolls 20)
allowSystemOperations : Allowing user-supplied system call operations

// * * * * * * * * * * * * * * * * * * * * * * * * * * * * * * * * * * * * * //
Create time

--> FOAM Warning : 
    From void* Foam::dlLibraryTable::openLibrary(const Foam::fileName&, bool)
    in file db/dynamicLibrary/dlLibraryTable/dlLibraryTable.C at line 188
    Could not load "libpetscFoam.so"
libpetscFoam.so: cannot open shared object file: No such file or directory
Create mesh for time = 0


PISO: Operating solver in PISO mode

Reading transportProperties

Reading field p

Reading field U

Reading/calculating face flux field phi


Starting time loop

Time = 0.00025

Courant Number mean: 8.24341e-18 max: 2.08167e-14
[INFO] MatrixAssemblyU: 68.092 [ms]
DILUPBiCGStab:  Solving for Ux, Initial residual = 1, Final residual = 0.00994539, No Iterations 5
DILUPBiCGStab:  Solving for Uy:  solution singularity
DILUPBiCGStab:  Solving for Uz:  solution singularity
[INFO] MomentumPredictor: 244.408 [ms]
[INFO] MatrixAssemblyPI: 68.42 [ms]
[INFO] AdjustPhi: 4.521 [ms]
[INFO] ConstrainPressure: 0.012 [ms]
[INFO] MatrixAssemblyPII: 19.605 [ms]
[OGL LOG][lduLduBase.H:119] Initialising OGL
	OGL commit:  5ef1233
	Branch: feat/on_device_permute 
	Build type: Release
	Ginkgo version: 1.7.0 ( develop)
	Ginkgo commit: sparse-communicator
	MPI is GPU aware: 1
	Forces host buffer based communication: 0
	CPU ranks per GPU: 1
	Matrix format: Coo
	End OGL_INFO
[OGL LOG][Proc: 0]: global_index_init: 10.124 [ms]
[OGL LOG][Proc: 0]p_local_cols: call_init: 0.021 [ms]
[OGL LOG][Proc: 0]p_local_rows: call_init: 0.011 [ms]
[OGL LOG][Proc: 0]p_local_ldu_map: call_init: 0.188 [ms]
[OGL LOG][Proc: 0]p_local_coeffs: call_init: 0.009 [ms]
[OGL LOG][Proc: 0]p_non_local_cols: call_init: 0.004 [ms]
[OGL LOG][Proc: 0]p_non_local_rows: call_init: 0.003 [ms]
[OGL LOG][Proc: 0]p_non_local_ldu_map: call_init: 0.003 [ms]
[OGL LOG][Proc: 0]p_non_local_coeffs: call_init: 0.003 [ms]
[OGL LOG][Proc: 0]p: init_local_sparsity_pattern: 59.798 [ms]
[OGL LOG][Proc: 0]p: init_non_local_sparsity_pattern: 3.56 [ms]
[OGL LOG][Proc: 0]p: update_local_matrix_data: 7.369 [ms]
[OGL LOG][Proc: 0]p: update_non_local_matrix_data: 0.19 [ms]
[OGL LOG][Proc: 0]device_partition: call_init: 0.225 [ms]
[OGL LOG][Proc: 0]p_matrix: call_init: 91.437 [ms]
[OGL LOG][Proc: 0]p_rhs: call_init: 6.956 [ms]
[OGL LOG][Proc: 0]p_solution: call_init: 2.808 [ms]
[OGL LOG][Proc: 0]p: init_precond: 0.084 [ms]
[OGL LOG][StoppingCriterion.H:373] Creating stopping criterion with minIter 0 frequency 1
[OGL LOG][Proc: 0]p: generate_solver: 0.047 [ms]
[OGL LOG][Proc: 0]p: solve: 5820.97 [ms]
[OGL LOG][Proc: 0]p: copy_x_back: 1.516 [ms]
[OGL LOG][lduLduBase.H:330] 
Statistics:
	Time per iteration: 3613 [mu s]
	Time per residual norm calculation: 2014.000000 [mu s]
	Time per iteration and DOF: 0.451625 [ns]
	Retrieve results bandwidth 1.319000 [GByte/s]
[OGL LOG][Proc: 0]p: solve_multi_gpu: 5931.13 [ms]
nonehipGKOCG:  Solving for p, Initial residual = 1, Final residual = 9.86262e-05, No Iterations 1611
[INFO] SolveP: 6365.02 [ms]
time step continuity errors : sum local = 7.57107e-09, global = 9.77256e-22, cumulative = 9.77256e-22
[INFO] ContinuityError: 10.15 [ms]
[INFO] CorrectBoundary: 1.023 [ms]
[INFO] PISOStep: 6491.85 [ms]
[INFO] MatrixAssemblyPI: 74.227 [ms]
[INFO] AdjustPhi: 11.347 [ms]
[INFO] ConstrainPressure: 0.005 [ms]
[INFO] MatrixAssemblyPII: 19.897 [ms]
[OGL LOG][Proc: 0]: global_index_init: 0.279 [ms]
[OGL LOG][Proc: 0]p_local_coeffs: call_update: 0 [ms]
[OGL LOG][Proc: 0]p_non_local_coeffs: call_update: 0 [ms]
[OGL LOG][Proc: 0]p: update_local_matrix_data: 9.68 [ms]
[OGL LOG][Proc: 0]p: update_non_local_matrix_data: 0.128 [ms]
[OGL LOG][Proc: 0]p_matrix: call_update: 6.407 [ms]
[OGL LOG][Proc: 0]p_rhs: call_update: 15.557 [ms]
[OGL LOG][Proc: 0]p: init_precond: 0.053 [ms]
[OGL LOG][StoppingCriterion.H:373] Creating stopping criterion with minIter 966 frequency 25
[OGL LOG][Proc: 0]p: generate_solver: 0.004 [ms]
[OGL LOG][Proc: 0]p: solve: 2857.91 [ms]
[OGL LOG][Proc: 0]p: copy_x_back: 1.615 [ms]
[OGL LOG][lduLduBase.H:330] 
Statistics:
	Time per iteration: 1785 [mu s]
	Time per residual norm calculation: 224.000000 [mu s]
	Time per iteration and DOF: 0.223125 [ns]
	Retrieve results bandwidth 1.238000 [GByte/s]
[OGL LOG][Proc: 0]p: solve_multi_gpu: 2883.23 [ms]
nonehipGKOCG:  Solving for p, Initial residual = 0.786384, Final residual = 8.81946e-05, No Iterations 1601
[INFO] SolveP: 2896.21 [ms]
time step continuity errors : sum local = 8.46282e-09, global = -2.35055e-22, cumulative = 7.42201e-22
[INFO] ContinuityError: 6.131 [ms]
[INFO] CorrectBoundary: 0.282 [ms]
[INFO] PISOStep: 3033.58 [ms]
[INFO] TimeStep: 9847.22 [ms]
ExecutionTime = 10.4 s  ClockTime = 11 s

Time = 0.0005

Courant Number mean: 0.0159459 max: 0.412549
[INFO] MatrixAssemblyU: 61.224 [ms]
DILUPBiCGStab:  Solving for Ux, Initial residual = 0.129572, Final residual = 0.00567037, No Iterations 5
DILUPBiCGStab:  Solving for Uy, Initial residual = 0.426966, Final residual = 0.015007, No Iterations 5
DILUPBiCGStab:  Solving for Uz, Initial residual = 0.987081, Final residual = 0.0372867, No Iterations 5
[INFO] MomentumPredictor: 472.431 [ms]
[INFO] MatrixAssemblyPI: 62.5 [ms]
[INFO] AdjustPhi: 10.426 [ms]
[INFO] ConstrainPressure: 0.003 [ms]
[INFO] MatrixAssemblyPII: 18.821 [ms]
[OGL LOG][Proc: 0]: global_index_init: 0.045 [ms]
[OGL LOG][Proc: 0]p_local_coeffs: call_update: 0 [ms]
[OGL LOG][Proc: 0]p_non_local_coeffs: call_update: 0 [ms]
[OGL LOG][Proc: 0]p: update_local_matrix_data: 9.923 [ms]
[OGL LOG][Proc: 0]p: update_non_local_matrix_data: 0.115 [ms]
[OGL LOG][Proc: 0]p_matrix: call_update: 5.585 [ms]
[OGL LOG][Proc: 0]p_rhs: call_update: 2.676 [ms]
[OGL LOG][Proc: 0]p: init_precond: 0.035 [ms]
[OGL LOG][StoppingCriterion.H:373] Creating stopping criterion with minIter 960 frequency 9
[OGL LOG][Proc: 0]p: generate_solver: 0.001 [ms]
[OGL LOG][Proc: 0]p: solve: 2611.78 [ms]
[OGL LOG][Proc: 0]p: copy_x_back: 1.587 [ms]
[OGL LOG][lduLduBase.H:330] 
Statistics:
	Time per iteration: 1666 [mu s]
	Time per residual norm calculation: 229.000000 [mu s]
	Time per iteration and DOF: 0.208250 [ns]
	Retrieve results bandwidth 1.260000 [GByte/s]
[OGL LOG][Proc: 0]p: solve_multi_gpu: 2623.12 [ms]
nonehipGKOCG:  Solving for p, Initial residual = 0.827607, Final residual = 9.86978e-05, No Iterations 1567
[INFO] SolveP: 2635.76 [ms]
time step continuity errors : sum local = 1.47462e-08, global = -9.98465e-22, cumulative = -2.56264e-22
[INFO] ContinuityError: 5.503 [ms]
[INFO] CorrectBoundary: 0.2 [ms]
[INFO] PISOStep: 2759.79 [ms]
[INFO] MatrixAssemblyPI: 61.346 [ms]
[INFO] AdjustPhi: 8.412 [ms]
[INFO] ConstrainPressure: 0.002 [ms]
[INFO] MatrixAssemblyPII: 19.632 [ms]
[OGL LOG][Proc: 0]: global_index_init: 0.099 [ms]
[OGL LOG][Proc: 0]p_local_coeffs: call_update: 0 [ms]
[OGL LOG][Proc: 0]p_non_local_coeffs: call_update: 0 [ms]
[OGL LOG][Proc: 0]p: update_local_matrix_data: 10.03 [ms]
[OGL LOG][Proc: 0]p: update_non_local_matrix_data: 0.09 [ms]
[OGL LOG][Proc: 0]p_matrix: call_update: 4.184 [ms]
[OGL LOG][Proc: 0]p_rhs: call_update: 3.934 [ms]
[OGL LOG][Proc: 0]p: init_precond: 0.044 [ms]
[OGL LOG][StoppingCriterion.H:373] Creating stopping criterion with minIter 940 frequency 9
[OGL LOG][Proc: 0]p: generate_solver: 0.002 [ms]
[OGL LOG][Proc: 0]p: solve: 2557.5 [ms]
[OGL LOG][Proc: 0]p: copy_x_back: 1.093 [ms]
[OGL LOG][lduLduBase.H:330] 
Statistics:
	Time per iteration: 1632 [mu s]
	Time per residual norm calculation: 222.000000 [mu s]
	Time per iteration and DOF: 0.204000 [ns]
	Retrieve results bandwidth 1.829000 [GByte/s]
[OGL LOG][Proc: 0]p: solve_multi_gpu: 2568.07 [ms]
nonehipGKOCG:  Solving for p, Initial residual = 0.770571, Final residual = 9.02507e-05, No Iterations 1567
[INFO] SolveP: 2581.85 [ms]
time step continuity errors : sum local = 1.3732e-08, global = 1.8786e-23, cumulative = -2.37478e-22
[INFO] ContinuityError: 5.889 [ms]
[INFO] CorrectBoundary: 0.224 [ms]
[INFO] PISOStep: 2702.21 [ms]
[INFO] TimeStep: 6003.04 [ms]
ExecutionTime = 16.35 s  ClockTime = 17 s

Time = 0.00075

Courant Number mean: 0.0243223 max: 0.472079
[INFO] MatrixAssemblyU: 60.718 [ms]
DILUPBiCGStab:  Solving for Ux, Initial residual = 0.0547811, Final residual = 0.00194224, No Iterations 5
DILUPBiCGStab:  Solving for Uy, Initial residual = 0.182465, Final residual = 0.00797746, No Iterations 5
DILUPBiCGStab:  Solving for Uz, Initial residual = 0.809661, Final residual = 0.0257793, No Iterations 5
[INFO] MomentumPredictor: 456.765 [ms]
[INFO] MatrixAssemblyPI: 66.648 [ms]
[INFO] AdjustPhi: 8.029 [ms]
[INFO] ConstrainPressure: 0.002 [ms]
[INFO] MatrixAssemblyPII: 19.19 [ms]
[OGL LOG][Proc: 0]: global_index_init: 0.214 [ms]
[OGL LOG][Proc: 0]p_local_coeffs: call_update: 0 [ms]
[OGL LOG][Proc: 0]p_non_local_coeffs: call_update: 0 [ms]
[OGL LOG][Proc: 0]p: update_local_matrix_data: 9.718 [ms]
[OGL LOG][Proc: 0]p: update_non_local_matrix_data: 0.169 [ms]
[OGL LOG][Proc: 0]p_matrix: call_update: 4.224 [ms]
[OGL LOG][Proc: 0]p_rhs: call_update: 4.052 [ms]
[OGL LOG][Proc: 0]p: init_precond: 0.041 [ms]
[OGL LOG][StoppingCriterion.H:373] Creating stopping criterion with minIter 940 frequency 9
[OGL LOG][Proc: 0]p: generate_solver: 0.002 [ms]
[OGL LOG][Proc: 0]p: solve: 2627.1 [ms]
[OGL LOG][Proc: 0]p: copy_x_back: 1.383 [ms]
[OGL LOG][lduLduBase.H:330] 
Statistics:
	Time per iteration: 1666 [mu s]
	Time per residual norm calculation: 223.000000 [mu s]
	Time per iteration and DOF: 0.208250 [ns]
	Retrieve results bandwidth 1.446000 [GByte/s]
[OGL LOG][Proc: 0]p: solve_multi_gpu: 2638.62 [ms]
nonehipGKOCG:  Solving for p, Initial residual = 0.849868, Final residual = 9.11959e-05, No Iterations 1576
[INFO] SolveP: 2656.3 [ms]
time step continuity errors : sum local = 1.23221e-08, global = -2.87048e-22, cumulative = -5.24526e-22
[INFO] ContinuityError: 6.838 [ms]
[INFO] CorrectBoundary: 2.701 [ms]
[INFO] PISOStep: 2783.67 [ms]
[INFO] MatrixAssemblyPI: 62.757 [ms]
[INFO] AdjustPhi: 7.715 [ms]
[INFO] ConstrainPressure: 0.003 [ms]
[INFO] MatrixAssemblyPII: 20.24 [ms]
[OGL LOG][Proc: 0]: global_index_init: 0.162 [ms]
[OGL LOG][Proc: 0]p_local_coeffs: call_update: 0 [ms]
[OGL LOG][Proc: 0]p_non_local_coeffs: call_update: 0 [ms]
[OGL LOG][Proc: 0]p: update_local_matrix_data: 10.246 [ms]
[OGL LOG][Proc: 0]p: update_non_local_matrix_data: 0.066 [ms]
[OGL LOG][Proc: 0]p_matrix: call_update: 5.925 [ms]
[OGL LOG][Proc: 0]p_rhs: call_update: 4.937 [ms]
[OGL LOG][Proc: 0]p: init_precond: 0.043 [ms]
[OGL LOG][StoppingCriterion.H:373] Creating stopping criterion with minIter 945 frequency 9
[OGL LOG][Proc: 0]p: generate_solver: 0.003 [ms]
[OGL LOG][Proc: 0]p: solve: 2481.82 [ms]
[OGL LOG][Proc: 0]p: copy_x_back: 1.18 [ms]
[OGL LOG][lduLduBase.H:330] 
Statistics:
	Time per iteration: 1574 [mu s]
	Time per residual norm calculation: 270.000000 [mu s]
	Time per iteration and DOF: 0.196750 [ns]
	Retrieve results bandwidth 1.694000 [GByte/s]
[OGL LOG][Proc: 0]p: solve_multi_gpu: 2495 [ms]
nonehipGKOCG:  Solving for p, Initial residual = 0.816063, Final residual = 8.5367e-05, No Iterations 1576
[INFO] SolveP: 2508 [ms]
time step continuity errors : sum local = 1.12823e-08, global = -1.77252e-21, cumulative = -2.29705e-21
[INFO] ContinuityError: 6.298 [ms]
[INFO] CorrectBoundary: 0.34 [ms]
[INFO] PISOStep: 2633.73 [ms]
[INFO] TimeStep: 5942.18 [ms]
ExecutionTime = 22.24 s  ClockTime = 23 s

Time = 0.001

Courant Number mean: 0.0291859 max: 0.467741
[INFO] MatrixAssemblyU: 60.88 [ms]
DILUPBiCGStab:  Solving for Ux, Initial residual = 0.0347121, Final residual = 0.00129448, No Iterations 5
DILUPBiCGStab:  Solving for Uy, Initial residual = 0.129212, Final residual = 0.00499181, No Iterations 5
DILUPBiCGStab:  Solving for Uz, Initial residual = 0.611922, Final residual = 0.0158791, No Iterations 5
[INFO] MomentumPredictor: 483.556 [ms]
[INFO] MatrixAssemblyPI: 66.894 [ms]
[INFO] AdjustPhi: 4.54 [ms]
[INFO] ConstrainPressure: 0.003 [ms]
[INFO] MatrixAssemblyPII: 19.398 [ms]
[OGL LOG][Proc: 0]: global_index_init: 0.239 [ms]
[OGL LOG][Proc: 0]p_local_coeffs: call_update: 0 [ms]
[OGL LOG][Proc: 0]p_non_local_coeffs: call_update: 0 [ms]
[OGL LOG][Proc: 0]p: update_local_matrix_data: 10.369 [ms]
[OGL LOG][Proc: 0]p: update_non_local_matrix_data: 0.061 [ms]
[OGL LOG][Proc: 0]p_matrix: call_update: 11.484 [ms]
[OGL LOG][Proc: 0]p_rhs: call_update: 4.838 [ms]
[OGL LOG][Proc: 0]p: init_precond: 0.042 [ms]
[OGL LOG][StoppingCriterion.H:373] Creating stopping criterion with minIter 945 frequency 11
[OGL LOG][Proc: 0]p: generate_solver: 0.002 [ms]
[OGL LOG][Proc: 0]p: solve: 1592.62 [ms]
[OGL LOG][Proc: 0]p: copy_x_back: 1.049 [ms]
[OGL LOG][lduLduBase.H:330] 
Statistics:
	Time per iteration: 1681 [mu s]
	Time per residual norm calculation: 226.000000 [mu s]
	Time per iteration and DOF: 0.210125 [ns]
	Retrieve results bandwidth 1.906000 [GByte/s]
[OGL LOG][Proc: 0]p: solve_multi_gpu: 1610.99 [ms]
nonehipGKOCG:  Solving for p, Initial residual = 0.77275, Final residual = 4.52878e-05, No Iterations 947
[INFO] SolveP: 1625.37 [ms]
time step continuity errors : sum local = 6.0315e-09, global = -1.78033e-21, cumulative = -4.07738e-21
[INFO] ContinuityError: 9.745 [ms]
[INFO] CorrectBoundary: 0.707 [ms]
[INFO] PISOStep: 1749.13 [ms]
[INFO] MatrixAssemblyPI: 61.477 [ms]
[INFO] AdjustPhi: 9.554 [ms]
[INFO] ConstrainPressure: 0.003 [ms]
[INFO] MatrixAssemblyPII: 18.447 [ms]
[OGL LOG][Proc: 0]: global_index_init: 0.066 [ms]
[OGL LOG][Proc: 0]p_local_coeffs: call_update: 0 [ms]
[OGL LOG][Proc: 0]p_non_local_coeffs: call_update: 0 [ms]
[OGL LOG][Proc: 0]p: update_local_matrix_data: 9.044 [ms]
[OGL LOG][Proc: 0]p: update_non_local_matrix_data: 0.176 [ms]
[OGL LOG][Proc: 0]p_matrix: call_update: 5.289 [ms]
[OGL LOG][Proc: 0]p_rhs: call_update: 6.143 [ms]
[OGL LOG][Proc: 0]p: init_precond: 0.045 [ms]
[OGL LOG][StoppingCriterion.H:373] Creating stopping criterion with minIter 568 frequency 7
[OGL LOG][Proc: 0]p: generate_solver: 0.002 [ms]
[OGL LOG][Proc: 0]p: solve: 1211.7 [ms]
[OGL LOG][Proc: 0]p: copy_x_back: 0.931 [ms]
[OGL LOG][lduLduBase.H:330] 
Statistics:
	Time per iteration: 1585 [mu s]
	Time per residual norm calculation: 223.000000 [mu s]
	Time per iteration and DOF: 0.198125 [ns]
	Retrieve results bandwidth 2.148000 [GByte/s]
[OGL LOG][Proc: 0]p: solve_multi_gpu: 1226.2 [ms]
nonehipGKOCG:  Solving for p, Initial residual = 0.709947, Final residual = 8.65925e-05, No Iterations 764
[INFO] SolveP: 1240.05 [ms]
time step continuity errors : sum local = 1.09609e-08, global = -5.12309e-22, cumulative = -4.58968e-21
[INFO] ContinuityError: 6.275 [ms]
[INFO] CorrectBoundary: 0.246 [ms]
[INFO] PISOStep: 1361.24 [ms]
[INFO] TimeStep: 3662.31 [ms]
ExecutionTime = 25.87 s  ClockTime = 27 s

Time = 0.00125

Courant Number mean: 0.0333261 max: 0.47298
[INFO] MatrixAssemblyU: 65.978 [ms]
DILUPBiCGStab:  Solving for Ux, Initial residual = 0.0271464, Final residual = 0.00094854, No Iterations 5
DILUPBiCGStab:  Solving for Uy, Initial residual = 0.0815452, Final residual = 0.00370091, No Iterations 5
DILUPBiCGStab:  Solving for Uz, Initial residual = 0.464525, Final residual = 0.0121829, No Iterations 5
[INFO] MomentumPredictor: 450.543 [ms]
[INFO] MatrixAssemblyPI: 65.507 [ms]
[INFO] AdjustPhi: 4.751 [ms]
[INFO] ConstrainPressure: 0.003 [ms]
[INFO] MatrixAssemblyPII: 19.516 [ms]
[OGL LOG][Proc: 0]: global_index_init: 0.081 [ms]
[OGL LOG][Proc: 0]p_local_coeffs: call_update: 0 [ms]
[OGL LOG][Proc: 0]p_non_local_coeffs: call_update: 0 [ms]
[OGL LOG][Proc: 0]p: update_local_matrix_data: 10.137 [ms]
[OGL LOG][Proc: 0]p: update_non_local_matrix_data: 0.068 [ms]
[OGL LOG][Proc: 0]p_matrix: call_update: 9.394 [ms]
[OGL LOG][Proc: 0]p_rhs: call_update: 1.561 [ms]
[OGL LOG][Proc: 0]p: init_precond: 0.045 [ms]
[OGL LOG][StoppingCriterion.H:373] Creating stopping criterion with minIter 458 frequency 6
[OGL LOG][Proc: 0]p: generate_solver: 0.005 [ms]
[OGL LOG][Proc: 0]p: solve: 1196.29 [ms]
[OGL LOG][Proc: 0]p: copy_x_back: 0.909 [ms]
[OGL LOG][lduLduBase.H:330] 
Statistics:
	Time per iteration: 1605 [mu s]
	Time per residual norm calculation: 226.000000 [mu s]
	Time per iteration and DOF: 0.200625 [ns]
	Retrieve results bandwidth 2.200000 [GByte/s]
[OGL LOG][Proc: 0]p: solve_multi_gpu: 1209.32 [ms]
nonehipGKOCG:  Solving for p, Initial residual = 0.777228, Final residual = 9.22188e-05, No Iterations 745
[INFO] SolveP: 1222.89 [ms]
time step continuity errors : sum local = 9.55298e-09, global = -1.32314e-21, cumulative = -5.91282e-21
[INFO] ContinuityError: 7.522 [ms]
[INFO] CorrectBoundary: 0.416 [ms]
[INFO] PISOStep: 1344.67 [ms]
[INFO] MatrixAssemblyPI: 64.215 [ms]
[INFO] AdjustPhi: 3.936 [ms]
[INFO] ConstrainPressure: 0.002 [ms]
[INFO] MatrixAssemblyPII: 19.42 [ms]
[OGL LOG][Proc: 0]: global_index_init: 0.227 [ms]
[OGL LOG][Proc: 0]p_local_coeffs: call_update: 0 [ms]
[OGL LOG][Proc: 0]p_non_local_coeffs: call_update: 0 [ms]
[OGL LOG][Proc: 0]p: update_local_matrix_data: 10.068 [ms]
[OGL LOG][Proc: 0]p: update_non_local_matrix_data: 0.095 [ms]
[OGL LOG][Proc: 0]p_matrix: call_update: 5.223 [ms]
[OGL LOG][Proc: 0]p_rhs: call_update: 3.218 [ms]
[OGL LOG][Proc: 0]p: init_precond: 0.04 [ms]
[OGL LOG][StoppingCriterion.H:373] Creating stopping criterion with minIter 447 frequency 6
[OGL LOG][Proc: 0]p: generate_solver: 0.002 [ms]
[OGL LOG][Proc: 0]p: solve: 1214.33 [ms]
[OGL LOG][Proc: 0]p: copy_x_back: 1.111 [ms]
[OGL LOG][lduLduBase.H:330] 
Statistics:
	Time per iteration: 1629 [mu s]
	Time per residual norm calculation: 224.000000 [mu s]
	Time per iteration and DOF: 0.203625 [ns]
	Retrieve results bandwidth 1.800000 [GByte/s]
[OGL LOG][Proc: 0]p: solve_multi_gpu: 1225.17 [ms]
nonehipGKOCG:  Solving for p, Initial residual = 0.726174, Final residual = 8.71041e-05, No Iterations 745
[INFO] SolveP: 1238.31 [ms]
time step continuity errors : sum local = 8.78542e-09, global = -1.92868e-21, cumulative = -7.84151e-21
[INFO] ContinuityError: 6.372 [ms]
[INFO] CorrectBoundary: 0.264 [ms]
[INFO] PISOStep: 1356.85 [ms]
[INFO] TimeStep: 3225.5 [ms]
ExecutionTime = 29.07 s  ClockTime = 30 s

Time = 0.0015

Courant Number mean: 0.0366253 max: 0.475543
[INFO] MatrixAssemblyU: 59.534 [ms]
DILUPBiCGStab:  Solving for Ux, Initial residual = 0.0204492, Final residual = 0.00068403, No Iterations 5
DILUPBiCGStab:  Solving for Uy, Initial residual = 0.0659585, Final residual = 0.00256704, No Iterations 5
DILUPBiCGStab:  Solving for Uz, Initial residual = 0.337328, Final residual = 0.00883079, No Iterations 5
[INFO] MomentumPredictor: 478.386 [ms]
[INFO] MatrixAssemblyPI: 67.213 [ms]
[INFO] AdjustPhi: 3.345 [ms]
[INFO] ConstrainPressure: 0.004 [ms]
[INFO] MatrixAssemblyPII: 19.718 [ms]
[OGL LOG][Proc: 0]: global_index_init: 0.201 [ms]
[OGL LOG][Proc: 0]p_local_coeffs: call_update: 0 [ms]
[OGL LOG][Proc: 0]p_non_local_coeffs: call_update: 0 [ms]
[OGL LOG][Proc: 0]p: update_local_matrix_data: 10.177 [ms]
[OGL LOG][Proc: 0]p: update_non_local_matrix_data: 0.066 [ms]
[OGL LOG][Proc: 0]p_matrix: call_update: 6.569 [ms]
[OGL LOG][Proc: 0]p_rhs: call_update: 2.857 [ms]
[OGL LOG][Proc: 0]p: init_precond: 0.04 [ms]
[OGL LOG][StoppingCriterion.H:373] Creating stopping criterion with minIter 447 frequency 6
[OGL LOG][Proc: 0]p: generate_solver: 0.002 [ms]
[OGL LOG][Proc: 0]p: solve: 1205.58 [ms]
[OGL LOG][Proc: 0]p: copy_x_back: 1.014 [ms]
[OGL LOG][lduLduBase.H:330] 
Statistics:
	Time per iteration: 1618 [mu s]
	Time per residual norm calculation: 221.000000 [mu s]
	Time per iteration and DOF: 0.202250 [ns]
	Retrieve results bandwidth 1.972000 [GByte/s]
[OGL LOG][Proc: 0]p: solve_multi_gpu: 1217.29 [ms]
nonehipGKOCG:  Solving for p, Initial residual = 0.685907, Final residual = 9.7354e-05, No Iterations 745
[INFO] SolveP: 1231.42 [ms]
time step continuity errors : sum local = 1.01303e-08, global = -5.72461e-22, cumulative = -8.41397e-21
[INFO] ContinuityError: 7.158 [ms]
[INFO] CorrectBoundary: 0.256 [ms]
[INFO] PISOStep: 1352.82 [ms]
[INFO] MatrixAssemblyPI: 63.753 [ms]
[INFO] AdjustPhi: 4.295 [ms]
[INFO] ConstrainPressure: 0.002 [ms]
[INFO] MatrixAssemblyPII: 19.591 [ms]
[OGL LOG][Proc: 0]: global_index_init: 3.058 [ms]
[OGL LOG][Proc: 0]p_local_coeffs: call_update: 0 [ms]
[OGL LOG][Proc: 0]p_non_local_coeffs: call_update: 0 [ms]
[OGL LOG][Proc: 0]p: update_local_matrix_data: 10.065 [ms]
[OGL LOG][Proc: 0]p: update_non_local_matrix_data: 0.082 [ms]
[OGL LOG][Proc: 0]p_matrix: call_update: 4.464 [ms]
[OGL LOG][Proc: 0]p_rhs: call_update: 4.809 [ms]
[OGL LOG][Proc: 0]p: init_precond: 0.039 [ms]
[OGL LOG][StoppingCriterion.H:373] Creating stopping criterion with minIter 447 frequency 6
[OGL LOG][Proc: 0]p: generate_solver: 0.004 [ms]
[OGL LOG][Proc: 0]p: solve: 1143.94 [ms]
[OGL LOG][Proc: 0]p: copy_x_back: 0.935 [ms]
[OGL LOG][lduLduBase.H:330] 
Statistics:
	Time per iteration: 1535 [mu s]
	Time per residual norm calculation: 217.000000 [mu s]
	Time per iteration and DOF: 0.191875 [ns]
	Retrieve results bandwidth 2.139000 [GByte/s]
[OGL LOG][Proc: 0]p: solve_multi_gpu: 1155.36 [ms]
nonehipGKOCG:  Solving for p, Initial residual = 0.625432, Final residual = 8.00564e-05, No Iterations 745
[INFO] SolveP: 1172.04 [ms]
time step continuity errors : sum local = 7.86308e-09, global = -1.60344e-22, cumulative = -8.57431e-21
[INFO] ContinuityError: 6.095 [ms]
[INFO] CorrectBoundary: 0.266 [ms]
[INFO] PISOStep: 1292.14 [ms]
[INFO] TimeStep: 3195.47 [ms]
ExecutionTime = 32.23 s  ClockTime = 33 s

Time = 0.00175

Courant Number mean: 0.0395403 max: 0.477486
[INFO] MatrixAssemblyU: 61.1 [ms]
DILUPBiCGStab:  Solving for Ux, Initial residual = 0.0174579, Final residual = 0.000549148, No Iterations 5
DILUPBiCGStab:  Solving for Uy, Initial residual = 0.0491748, Final residual = 0.0018771, No Iterations 5
DILUPBiCGStab:  Solving for Uz, Initial residual = 0.263124, Final residual = 0.00815988, No Iterations 5
[INFO] MomentumPredictor: 463.746 [ms]
[INFO] MatrixAssemblyPI: 66.7 [ms]
[INFO] AdjustPhi: 6.63 [ms]
[INFO] ConstrainPressure: 0.003 [ms]
[INFO] MatrixAssemblyPII: 19.47 [ms]
[OGL LOG][Proc: 0]: global_index_init: 0.2 [ms]
[OGL LOG][Proc: 0]p_local_coeffs: call_update: 0 [ms]
[OGL LOG][Proc: 0]p_non_local_coeffs: call_update: 0 [ms]
[OGL LOG][Proc: 0]p: update_local_matrix_data: 10.291 [ms]
[OGL LOG][Proc: 0]p: update_non_local_matrix_data: 0.077 [ms]
[OGL LOG][Proc: 0]p_matrix: call_update: 5.068 [ms]
[OGL LOG][Proc: 0]p_rhs: call_update: 3.438 [ms]
[OGL LOG][Proc: 0]p: init_precond: 0.047 [ms]
[OGL LOG][StoppingCriterion.H:373] Creating stopping criterion with minIter 447 frequency 6
[OGL LOG][Proc: 0]p: generate_solver: 0.002 [ms]
[OGL LOG][Proc: 0]p: solve: 2481.87 [ms]
[OGL LOG][Proc: 0]p: copy_x_back: 0.927 [ms]
[OGL LOG][lduLduBase.H:330] 
Statistics:
	Time per iteration: 1633 [mu s]
	Time per residual norm calculation: 223.000000 [mu s]
	Time per iteration and DOF: 0.204125 [ns]
	Retrieve results bandwidth 2.157000 [GByte/s]
[OGL LOG][Proc: 0]p: solve_multi_gpu: 2492.52 [ms]
nonehipGKOCG:  Solving for p, Initial residual = 0.681213, Final residual = 8.62766e-05, No Iterations 1519
[INFO] SolveP: 2506.72 [ms]
time step continuity errors : sum local = 6.75529e-09, global = -4.39246e-21, cumulative = -1.29668e-20
[INFO] ContinuityError: 6.267 [ms]
[INFO] CorrectBoundary: 0.289 [ms]
[INFO] PISOStep: 2630.41 [ms]
[INFO] MatrixAssemblyPI: 62.984 [ms]
[INFO] AdjustPhi: 5.221 [ms]
[INFO] ConstrainPressure: 0.003 [ms]
[INFO] MatrixAssemblyPII: 19.344 [ms]
[OGL LOG][Proc: 0]: global_index_init: 0.223 [ms]
[OGL LOG][Proc: 0]p_local_coeffs: call_update: 0 [ms]
[OGL LOG][Proc: 0]p_non_local_coeffs: call_update: 0 [ms]
[OGL LOG][Proc: 0]p: update_local_matrix_data: 10.032 [ms]
[OGL LOG][Proc: 0]p: update_non_local_matrix_data: 0.072 [ms]
[OGL LOG][Proc: 0]p_matrix: call_update: 5.751 [ms]
[OGL LOG][Proc: 0]p_rhs: call_update: 2.272 [ms]
[OGL LOG][Proc: 0]p: init_precond: 0.041 [ms]
[OGL LOG][StoppingCriterion.H:373] Creating stopping criterion with minIter 911 frequency 9
[OGL LOG][Proc: 0]p: generate_solver: 0.003 [ms]
[OGL LOG][Proc: 0]p: solve: 2351.16 [ms]
[OGL LOG][Proc: 0]p: copy_x_back: 0.859 [ms]
[OGL LOG][lduLduBase.H:330] 
Statistics:
	Time per iteration: 1553 [mu s]
	Time per residual norm calculation: 223.000000 [mu s]
	Time per iteration and DOF: 0.194125 [ns]
	Retrieve results bandwidth 2.328000 [GByte/s]
[OGL LOG][Proc: 0]p: solve_multi_gpu: 2361.24 [ms]
nonehipGKOCG:  Solving for p, Initial residual = 0.621994, Final residual = 9.53553e-05, No Iterations 1513
[INFO] SolveP: 2375.34 [ms]
time step continuity errors : sum local = 7.42533e-09, global = -6.38674e-22, cumulative = -1.36054e-20
[INFO] ContinuityError: 7.66 [ms]
[INFO] CorrectBoundary: 0.423 [ms]
[INFO] PISOStep: 2493.76 [ms]
[INFO] TimeStep: 5656.46 [ms]
ExecutionTime = 37.85 s  ClockTime = 39 s

Time = 0.002

Courant Number mean: 0.0420648 max: 0.479193
[INFO] MatrixAssemblyU: 56.931 [ms]
DILUPBiCGStab:  Solving for Ux, Initial residual = 0.0143177, Final residual = 0.000425559, No Iterations 5
DILUPBiCGStab:  Solving for Uy, Initial residual = 0.0418617, Final residual = 0.00146379, No Iterations 5
DILUPBiCGStab:  Solving for Uz, Initial residual = 0.205247, Final residual = 0.00625585, No Iterations 5
[INFO] MomentumPredictor: 495.343 [ms]
[INFO] MatrixAssemblyPI: 67.454 [ms]
[INFO] AdjustPhi: 3.304 [ms]
[INFO] ConstrainPressure: 0.003 [ms]
[INFO] MatrixAssemblyPII: 19.508 [ms]
[OGL LOG][Proc: 0]: global_index_init: 0.114 [ms]
[OGL LOG][Proc: 0]p_local_coeffs: call_update: 0 [ms]
[OGL LOG][Proc: 0]p_non_local_coeffs: call_update: 0 [ms]
[OGL LOG][Proc: 0]p: update_local_matrix_data: 9.972 [ms]
[OGL LOG][Proc: 0]p: update_non_local_matrix_data: 0.091 [ms]
[OGL LOG][Proc: 0]p_matrix: call_update: 5.689 [ms]
[OGL LOG][Proc: 0]p_rhs: call_update: 3.52 [ms]
[OGL LOG][Proc: 0]p: init_precond: 0.042 [ms]
[OGL LOG][StoppingCriterion.H:373] Creating stopping criterion with minIter 907 frequency 10
[OGL LOG][Proc: 0]p: generate_solver: 0.003 [ms]
[OGL LOG][Proc: 0]p: solve: 2426.46 [ms]
[OGL LOG][Proc: 0]p: copy_x_back: 1.264 [ms]
[OGL LOG][lduLduBase.H:330] 
Statistics:
	Time per iteration: 1595 [mu s]
	Time per residual norm calculation: 220.000000 [mu s]
	Time per iteration and DOF: 0.199375 [ns]
	Retrieve results bandwidth 1.582000 [GByte/s]
[OGL LOG][Proc: 0]p: solve_multi_gpu: 2438.34 [ms]
nonehipGKOCG:  Solving for p, Initial residual = 0.591258, Final residual = 9.58864e-05, No Iterations 1521
[INFO] SolveP: 2451.45 [ms]
time step continuity errors : sum local = 7.15489e-09, global = -2.31695e-21, cumulative = -1.59224e-20
[INFO] ContinuityError: 6.784 [ms]
[INFO] CorrectBoundary: 0.251 [ms]
[INFO] PISOStep: 2572.79 [ms]
[INFO] MatrixAssemblyPI: 63.764 [ms]
[INFO] AdjustPhi: 4.243 [ms]
[INFO] ConstrainPressure: 0.003 [ms]
[INFO] MatrixAssemblyPII: 19.762 [ms]
[OGL LOG][Proc: 0]: global_index_init: 0.274 [ms]
[OGL LOG][Proc: 0]p_local_coeffs: call_update: 0 [ms]
[OGL LOG][Proc: 0]p_non_local_coeffs: call_update: 0 [ms]
[OGL LOG][Proc: 0]p: update_local_matrix_data: 10.21 [ms]
[OGL LOG][Proc: 0]p: update_non_local_matrix_data: 0.085 [ms]
[OGL LOG][Proc: 0]p_matrix: call_update: 4.997 [ms]
[OGL LOG][Proc: 0]p_rhs: call_update: 3.118 [ms]
[OGL LOG][Proc: 0]p: init_precond: 0.045 [ms]
[OGL LOG][StoppingCriterion.H:373] Creating stopping criterion with minIter 912 frequency 9
[OGL LOG][Proc: 0]p: generate_solver: 0.005 [ms]
[OGL LOG][Proc: 0]p: solve: 2399.34 [ms]
[OGL LOG][Proc: 0]p: copy_x_back: 0.849 [ms]
[OGL LOG][lduLduBase.H:330] 
Statistics:
	Time per iteration: 1576 [mu s]
	Time per residual norm calculation: 219.000000 [mu s]
	Time per iteration and DOF: 0.197000 [ns]
	Retrieve results bandwidth 2.355000 [GByte/s]
[OGL LOG][Proc: 0]p: solve_multi_gpu: 2409.41 [ms]
nonehipGKOCG:  Solving for p, Initial residual = 0.534065, Final residual = 8.78678e-05, No Iterations 1522
[INFO] SolveP: 2423.48 [ms]
time step continuity errors : sum local = 6.5422e-09, global = -2.08517e-21, cumulative = -1.80076e-20
[INFO] ContinuityError: 11.535 [ms]
[INFO] CorrectBoundary: 0.278 [ms]
[INFO] PISOStep: 2546.59 [ms]
[INFO] TimeStep: 5679.34 [ms]
ExecutionTime = 43.5 s  ClockTime = 44 s

Time = 0.00225

Courant Number mean: 0.0443504 max: 0.480341
[INFO] MatrixAssemblyU: 61.527 [ms]
DILUPBiCGStab:  Solving for Ux, Initial residual = 0.0125977, Final residual = 0.000352221, No Iterations 5
DILUPBiCGStab:  Solving for Uy, Initial residual = 0.0337381, Final residual = 0.00103743, No Iterations 5
DILUPBiCGStab:  Solving for Uz, Initial residual = 0.165779, Final residual = 0.00585251, No Iterations 5
[INFO] MomentumPredictor: 469.713 [ms]
[INFO] MatrixAssemblyPI: 66.366 [ms]
[INFO] AdjustPhi: 3.814 [ms]
[INFO] ConstrainPressure: 0.003 [ms]
[INFO] MatrixAssemblyPII: 19.437 [ms]
[OGL LOG][Proc: 0]: global_index_init: 0.131 [ms]
[OGL LOG][Proc: 0]p_local_coeffs: call_update: 0 [ms]
[OGL LOG][Proc: 0]p_non_local_coeffs: call_update: 0 [ms]
[OGL LOG][Proc: 0]p: update_local_matrix_data: 10.097 [ms]
[OGL LOG][Proc: 0]p: update_non_local_matrix_data: 0.076 [ms]
[OGL LOG][Proc: 0]p_matrix: call_update: 6.825 [ms]
[OGL LOG][Proc: 0]p_rhs: call_update: 1.331 [ms]
[OGL LOG][Proc: 0]p: init_precond: 0.043 [ms]
[OGL LOG][StoppingCriterion.H:373] Creating stopping criterion with minIter 913 frequency 9
[OGL LOG][Proc: 0]p: generate_solver: 0.002 [ms]
[OGL LOG][Proc: 0]p: solve: 2389.47 [ms]
[OGL LOG][Proc: 0]p: copy_x_back: 1.266 [ms]
[OGL LOG][lduLduBase.H:330] 
Statistics:
	Time per iteration: 1588 [mu s]
	Time per residual norm calculation: 231.000000 [mu s]
	Time per iteration and DOF: 0.198500 [ns]
	Retrieve results bandwidth 1.579000 [GByte/s]
[OGL LOG][Proc: 0]p: solve_multi_gpu: 2400.25 [ms]
nonehipGKOCG:  Solving for p, Initial residual = 0.577994, Final residual = 9.63502e-05, No Iterations 1504
[INFO] SolveP: 2412.89 [ms]
time step continuity errors : sum local = 6.21439e-09, global = -1.20284e-22, cumulative = -1.81279e-20
[INFO] ContinuityError: 9.494 [ms]
[INFO] CorrectBoundary: 0.228 [ms]
[INFO] PISOStep: 2534.74 [ms]
[INFO] MatrixAssemblyPI: 62.948 [ms]
[INFO] AdjustPhi: 6.641 [ms]
[INFO] ConstrainPressure: 0.003 [ms]
[INFO] MatrixAssemblyPII: 19.005 [ms]
[OGL LOG][Proc: 0]: global_index_init: 0.306 [ms]
[OGL LOG][Proc: 0]p_local_coeffs: call_update: 0 [ms]
[OGL LOG][Proc: 0]p_non_local_coeffs: call_update: 0 [ms]
[OGL LOG][Proc: 0]p: update_local_matrix_data: 9.766 [ms]
[OGL LOG][Proc: 0]p: update_non_local_matrix_data: 0.108 [ms]
[OGL LOG][Proc: 0]p_matrix: call_update: 4.282 [ms]
[OGL LOG][Proc: 0]p_rhs: call_update: 4.178 [ms]
[OGL LOG][Proc: 0]p: init_precond: 0.043 [ms]
[OGL LOG][StoppingCriterion.H:373] Creating stopping criterion with minIter 902 frequency 10
[OGL LOG][Proc: 0]p: generate_solver: 0.001 [ms]
[OGL LOG][Proc: 0]p: solve: 2345.39 [ms]
[OGL LOG][Proc: 0]p: copy_x_back: 0.8 [ms]
[OGL LOG][lduLduBase.H:330] 
Statistics:
	Time per iteration: 1562 [mu s]
	Time per residual norm calculation: 227.000000 [mu s]
	Time per iteration and DOF: 0.195250 [ns]
	Retrieve results bandwidth 2.500000 [GByte/s]
[OGL LOG][Proc: 0]p: solve_multi_gpu: 2356.1 [ms]
nonehipGKOCG:  Solving for p, Initial residual = 0.517667, Final residual = 9.35118e-05, No Iterations 1501
[INFO] SolveP: 2369.99 [ms]
time step continuity errors : sum local = 6.02771e-09, global = -4.01695e-21, cumulative = -2.21448e-20
[INFO] ContinuityError: 7.297 [ms]
[INFO] CorrectBoundary: 0.45 [ms]
[INFO] PISOStep: 2492.99 [ms]
[INFO] TimeStep: 5566.47 [ms]
ExecutionTime = 49.02 s  ClockTime = 50 s

Time = 0.0025

Courant Number mean: 0.0464048 max: 0.481448
[INFO] MatrixAssemblyU: 56.051 [ms]
DILUPBiCGStab:  Solving for Ux, Initial residual = 0.0108438, Final residual = 0.000285355, No Iterations 5
DILUPBiCGStab:  Solving for Uy, Initial residual = 0.0295422, Final residual = 0.000851968, No Iterations 5
DILUPBiCGStab:  Solving for Uz, Initial residual = 0.134089, Final residual = 0.00480834, No Iterations 5
[INFO] MomentumPredictor: 477.484 [ms]
[INFO] MatrixAssemblyPI: 66.378 [ms]
[INFO] AdjustPhi: 4.972 [ms]
[INFO] ConstrainPressure: 0.003 [ms]
[INFO] MatrixAssemblyPII: 19.414 [ms]
[OGL LOG][Proc: 0]: global_index_init: 0.289 [ms]
[OGL LOG][Proc: 0]p_local_coeffs: call_update: 0 [ms]
[OGL LOG][Proc: 0]p_non_local_coeffs: call_update: 0 [ms]
[OGL LOG][Proc: 0]p: update_local_matrix_data: 9.964 [ms]
[OGL LOG][Proc: 0]p: update_non_local_matrix_data: 0.142 [ms]
[OGL LOG][Proc: 0]p_matrix: call_update: 6.174 [ms]
[OGL LOG][Proc: 0]p_rhs: call_update: 2.584 [ms]
[OGL LOG][Proc: 0]p: init_precond: 0.041 [ms]
[OGL LOG][StoppingCriterion.H:373] Creating stopping criterion with minIter 900 frequency 10
[OGL LOG][Proc: 0]p: generate_solver: 0.001 [ms]
[OGL LOG][Proc: 0]p: solve: 2376.95 [ms]
[OGL LOG][Proc: 0]p: copy_x_back: 1.281 [ms]
[OGL LOG][lduLduBase.H:330] 
Statistics:
	Time per iteration: 1583 [mu s]
	Time per residual norm calculation: 220.000000 [mu s]
	Time per iteration and DOF: 0.197875 [ns]
	Retrieve results bandwidth 1.561000 [GByte/s]
[OGL LOG][Proc: 0]p: solve_multi_gpu: 2388.41 [ms]
nonehipGKOCG:  Solving for p, Initial residual = 0.501974, Final residual = 9.21808e-05, No Iterations 1501
[INFO] SolveP: 2401.43 [ms]
time step continuity errors : sum local = 5.77593e-09, global = -3.39786e-21, cumulative = -2.55427e-20
[INFO] ContinuityError: 6.863 [ms]
[INFO] CorrectBoundary: 0.254 [ms]
[INFO] PISOStep: 2523.35 [ms]
[INFO] MatrixAssemblyPI: 63.433 [ms]
[INFO] AdjustPhi: 4.769 [ms]
[INFO] ConstrainPressure: 0.003 [ms]
[INFO] MatrixAssemblyPII: 19.394 [ms]
[OGL LOG][Proc: 0]: global_index_init: 0.072 [ms]
[OGL LOG][Proc: 0]p_local_coeffs: call_update: 0 [ms]
[OGL LOG][Proc: 0]p_non_local_coeffs: call_update: 0 [ms]
[OGL LOG][Proc: 0]p: update_local_matrix_data: 9.993 [ms]
[OGL LOG][Proc: 0]p: update_non_local_matrix_data: 0.109 [ms]
[OGL LOG][Proc: 0]p_matrix: call_update: 4.102 [ms]
[OGL LOG][Proc: 0]p_rhs: call_update: 4.356 [ms]
[OGL LOG][Proc: 0]p: init_precond: 0.042 [ms]
[OGL LOG][StoppingCriterion.H:373] Creating stopping criterion with minIter 900 frequency 9
[OGL LOG][Proc: 0]p: generate_solver: 0.001 [ms]
[OGL LOG][Proc: 0]p: solve: 2330.35 [ms]
[OGL LOG][Proc: 0]p: copy_x_back: 0.852 [ms]
[OGL LOG][lduLduBase.H:330] 
Statistics:
	Time per iteration: 1558 [mu s]
	Time per residual norm calculation: 223.000000 [mu s]
	Time per iteration and DOF: 0.194750 [ns]
	Retrieve results bandwidth 2.347000 [GByte/s]
[OGL LOG][Proc: 0]p: solve_multi_gpu: 2343.83 [ms]
nonehipGKOCG:  Solving for p, Initial residual = 0.449524, Final residual = 9.55914e-05, No Iterations 1495
[INFO] SolveP: 2357.34 [ms]
time step continuity errors : sum local = 5.96476e-09, global = -5.18348e-21, cumulative = -3.07261e-20
[INFO] ContinuityError: 8.123 [ms]
[INFO] CorrectBoundary: 0.173 [ms]
[INFO] PISOStep: 2477.04 [ms]
[INFO] TimeStep: 5543.58 [ms]
ExecutionTime = 54.53 s  ClockTime = 55 s

Time = 0.00275

Courant Number mean: 0.0482937 max: 0.48222
[INFO] MatrixAssemblyU: 61.09 [ms]
DILUPBiCGStab:  Solving for Ux, Initial residual = 0.00971438, Final residual = 0.000240585, No Iterations 5
DILUPBiCGStab:  Solving for Uy, Initial residual = 0.0250179, Final residual = 0.000620262, No Iterations 5
DILUPBiCGStab:  Solving for Uz, Initial residual = 0.112188, Final residual = 0.00452563, No Iterations 5
[INFO] MomentumPredictor: 473.642 [ms]
[INFO] MatrixAssemblyPI: 66.75 [ms]
[INFO] AdjustPhi: 5.887 [ms]
[INFO] ConstrainPressure: 0.003 [ms]
[INFO] MatrixAssemblyPII: 19.172 [ms]
[OGL LOG][Proc: 0]: global_index_init: 0.135 [ms]
[OGL LOG][Proc: 0]p_local_coeffs: call_update: 0 [ms]
[OGL LOG][Proc: 0]p_non_local_coeffs: call_update: 0 [ms]
[OGL LOG][Proc: 0]p: update_local_matrix_data: 9.818 [ms]
[OGL LOG][Proc: 0]p: update_non_local_matrix_data: 0.168 [ms]
[OGL LOG][Proc: 0]p_matrix: call_update: 6.399 [ms]
[OGL LOG][Proc: 0]p_rhs: call_update: 1.179 [ms]
[OGL LOG][Proc: 0]p: init_precond: 0.041 [ms]
[OGL LOG][StoppingCriterion.H:373] Creating stopping criterion with minIter 897 frequency 9
[OGL LOG][Proc: 0]p: generate_solver: 0.002 [ms]
[OGL LOG][Proc: 0]p: solve: 2377.84 [ms]
[OGL LOG][Proc: 0]p: copy_x_back: 1 [ms]
[OGL LOG][lduLduBase.H:330] 
Statistics:
	Time per iteration: 1590 [mu s]
	Time per residual norm calculation: 228.000000 [mu s]
	Time per iteration and DOF: 0.198750 [ns]
	Retrieve results bandwidth 2.000000 [GByte/s]
[OGL LOG][Proc: 0]p: solve_multi_gpu: 2387.9 [ms]
nonehipGKOCG:  Solving for p, Initial residual = 0.477347, Final residual = 7.89931e-05, No Iterations 1495
[INFO] SolveP: 2400.42 [ms]
time step continuity errors : sum local = 4.46463e-09, global = -4.80179e-21, cumulative = -3.55279e-20
[INFO] ContinuityError: 7.919 [ms]
[INFO] CorrectBoundary: 0.223 [ms]
[INFO] PISOStep: 2524.68 [ms]
[INFO] MatrixAssemblyPI: 60.166 [ms]
[INFO] AdjustPhi: 9.469 [ms]
[INFO] ConstrainPressure: 0.002 [ms]
[INFO] MatrixAssemblyPII: 19.165 [ms]
[OGL LOG][Proc: 0]: global_index_init: 0.164 [ms]
[OGL LOG][Proc: 0]p_local_coeffs: call_update: 0 [ms]
[OGL LOG][Proc: 0]p_non_local_coeffs: call_update: 0 [ms]
[OGL LOG][Proc: 0]p: update_local_matrix_data: 9.744 [ms]
[OGL LOG][Proc: 0]p: update_non_local_matrix_data: 0.099 [ms]
[OGL LOG][Proc: 0]p_matrix: call_update: 4.343 [ms]
[OGL LOG][Proc: 0]p_rhs: call_update: 7.157 [ms]
[OGL LOG][Proc: 0]p: init_precond: 0.041 [ms]
[OGL LOG][StoppingCriterion.H:373] Creating stopping criterion with minIter 897 frequency 9
[OGL LOG][Proc: 0]p: generate_solver: 0.001 [ms]
[OGL LOG][Proc: 0]p: solve: 2325.51 [ms]
[OGL LOG][Proc: 0]p: copy_x_back: 0.851 [ms]
[OGL LOG][lduLduBase.H:330] 
Statistics:
	Time per iteration: 1564 [mu s]
	Time per residual norm calculation: 218.000000 [mu s]
	Time per iteration and DOF: 0.195500 [ns]
	Retrieve results bandwidth 2.350000 [GByte/s]
[OGL LOG][Proc: 0]p: solve_multi_gpu: 2339.35 [ms]
nonehipGKOCG:  Solving for p, Initial residual = 0.423479, Final residual = 9.43658e-05, No Iterations 1486
[INFO] SolveP: 2353.16 [ms]
time step continuity errors : sum local = 5.33801e-09, global = -2.37226e-21, cumulative = -3.79002e-20
[INFO] ContinuityError: 6.964 [ms]
[INFO] CorrectBoundary: 0.408 [ms]
[INFO] PISOStep: 2472.73 [ms]
[INFO] TimeStep: 5539.67 [ms]
ExecutionTime = 60.03 s  ClockTime = 61 s

Time = 0.003

Courant Number mean: 0.0500276 max: 0.483011
[INFO] MatrixAssemblyU: 57.268 [ms]
DILUPBiCGStab:  Solving for Ux, Initial residual = 0.00862392, Final residual = 0.000201556, No Iterations 5
DILUPBiCGStab:  Solving for Uy, Initial residual = 0.0223387, Final residual = 0.000512307, No Iterations 5
DILUPBiCGStab:  Solving for Uz, Initial residual = 0.093932, Final residual = 0.00384416, No Iterations 5
[INFO] MomentumPredictor: 473.829 [ms]
[INFO] MatrixAssemblyPI: 66.491 [ms]
[INFO] AdjustPhi: 4.043 [ms]
[INFO] ConstrainPressure: 0.003 [ms]
[INFO] MatrixAssemblyPII: 19.478 [ms]
[OGL LOG][Proc: 0]: global_index_init: 0.306 [ms]
[OGL LOG][Proc: 0]p_local_coeffs: call_update: 0 [ms]
[OGL LOG][Proc: 0]p_non_local_coeffs: call_update: 0 [ms]
[OGL LOG][Proc: 0]p: update_local_matrix_data: 10.012 [ms]
[OGL LOG][Proc: 0]p: update_non_local_matrix_data: 0.133 [ms]
[OGL LOG][Proc: 0]p_matrix: call_update: 7.331 [ms]
[OGL LOG][Proc: 0]p_rhs: call_update: 0.827 [ms]
[OGL LOG][Proc: 0]p: init_precond: 0.038 [ms]
[OGL LOG][StoppingCriterion.H:373] Creating stopping criterion with minIter 891 frequency 9
[OGL LOG][Proc: 0]p: generate_solver: 0.002 [ms]
[OGL LOG][Proc: 0]p: solve: 2368.38 [ms]
[OGL LOG][Proc: 0]p: copy_x_back: 1.299 [ms]
[OGL LOG][lduLduBase.H:330] 
Statistics:
	Time per iteration: 1584 [mu s]
	Time per residual norm calculation: 216.000000 [mu s]
	Time per iteration and DOF: 0.198000 [ns]
	Retrieve results bandwidth 1.539000 [GByte/s]
[OGL LOG][Proc: 0]p: solve_multi_gpu: 2379.26 [ms]
nonehipGKOCG:  Solving for p, Initial residual = 0.420448, Final residual = 7.91617e-05, No Iterations 1495
[INFO] SolveP: 2392.18 [ms]
time step continuity errors : sum local = 4.34884e-09, global = -7.23743e-22, cumulative = -3.86239e-20
[INFO] ContinuityError: 6.47 [ms]
[INFO] CorrectBoundary: 0.265 [ms]
[INFO] PISOStep: 2513.22 [ms]
[INFO] MatrixAssemblyPI: 64.036 [ms]
[INFO] AdjustPhi: 3.85 [ms]
[INFO] ConstrainPressure: 0.003 [ms]
[INFO] MatrixAssemblyPII: 19.845 [ms]
[OGL LOG][Proc: 0]: global_index_init: 0.17 [ms]
[OGL LOG][Proc: 0]p_local_coeffs: call_update: 0 [ms]
[OGL LOG][Proc: 0]p_non_local_coeffs: call_update: 0 [ms]
[OGL LOG][Proc: 0]p: update_local_matrix_data: 10.12 [ms]
[OGL LOG][Proc: 0]p: update_non_local_matrix_data: 0.076 [ms]
[OGL LOG][Proc: 0]p_matrix: call_update: 5.6 [ms]
[OGL LOG][Proc: 0]p_rhs: call_update: 2.169 [ms]
[OGL LOG][Proc: 0]p: init_precond: 0.041 [ms]
[OGL LOG][StoppingCriterion.H:373] Creating stopping criterion with minIter 897 frequency 9
[OGL LOG][Proc: 0]p: generate_solver: 0.002 [ms]
[OGL LOG][Proc: 0]p: solve: 2350.13 [ms]
[OGL LOG][Proc: 0]p: copy_x_back: 0.831 [ms]
[OGL LOG][lduLduBase.H:330] 
Statistics:
	Time per iteration: 1581 [mu s]
	Time per residual norm calculation: 221.000000 [mu s]
	Time per iteration and DOF: 0.197625 [ns]
	Retrieve results bandwidth 2.406000 [GByte/s]
[OGL LOG][Proc: 0]p: solve_multi_gpu: 2359.82 [ms]
nonehipGKOCG:  Solving for p, Initial residual = 0.37409, Final residual = 9.45723e-05, No Iterations 1486
[INFO] SolveP: 2374.01 [ms]
time step continuity errors : sum local = 5.17289e-09, global = -4.06536e-21, cumulative = -4.26893e-20
[INFO] ContinuityError: 7.708 [ms]
[INFO] CorrectBoundary: 0.281 [ms]
[INFO] PISOStep: 2495.66 [ms]
[INFO] TimeStep: 5547.37 [ms]
ExecutionTime = 65.53 s  ClockTime = 66 s

Time = 0.00325

Courant Number mean: 0.0516386 max: 0.483576
[INFO] MatrixAssemblyU: 60.788 [ms]
DILUPBiCGStab:  Solving for Ux, Initial residual = 0.00782737, Final residual = 0.000172167, No Iterations 5
DILUPBiCGStab:  Solving for Uy, Initial residual = 0.0195562, Final residual = 0.000402565, No Iterations 5
DILUPBiCGStab:  Solving for Uz, Initial residual = 0.08021, Final residual = 0.00357534, No Iterations 5
[INFO] MomentumPredictor: 475.266 [ms]
[INFO] MatrixAssemblyPI: 66.776 [ms]
[INFO] AdjustPhi: 3.511 [ms]
[INFO] ConstrainPressure: 0.003 [ms]
[INFO] MatrixAssemblyPII: 19.408 [ms]
[OGL LOG][Proc: 0]: global_index_init: 0.302 [ms]
[OGL LOG][Proc: 0]p_local_coeffs: call_update: 0 [ms]
[OGL LOG][Proc: 0]p_non_local_coeffs: call_update: 0 [ms]
[OGL LOG][Proc: 0]p: update_local_matrix_data: 9.612 [ms]
[OGL LOG][Proc: 0]p: update_non_local_matrix_data: 0.169 [ms]
[OGL LOG][Proc: 0]p_matrix: call_update: 9.111 [ms]
[OGL LOG][Proc: 0]p_rhs: call_update: 7.199 [ms]
[OGL LOG][Proc: 0]p: init_precond: 0.039 [ms]
[OGL LOG][StoppingCriterion.H:373] Creating stopping criterion with minIter 891 frequency 9
[OGL LOG][Proc: 0]p: generate_solver: 0.002 [ms]
[OGL LOG][Proc: 0]p: solve: 2335.93 [ms]
[OGL LOG][Proc: 0]p: copy_x_back: 1.075 [ms]
[OGL LOG][lduLduBase.H:330] 
Statistics:
	Time per iteration: 1571 [mu s]
	Time per residual norm calculation: 233.000000 [mu s]
	Time per iteration and DOF: 0.196375 [ns]
	Retrieve results bandwidth 1.860000 [GByte/s]
[OGL LOG][Proc: 0]p: solve_multi_gpu: 2358.09 [ms]
nonehipGKOCG:  Solving for p, Initial residual = 0.389647, Final residual = 9.28946e-05, No Iterations 1486
[INFO] SolveP: 2370.2 [ms]
time step continuity errors : sum local = 4.76423e-09, global = -3.50959e-21, cumulative = -4.61989e-20
[INFO] ContinuityError: 10.111 [ms]
[INFO] CorrectBoundary: 0.532 [ms]
[INFO] PISOStep: 2494.59 [ms]
[INFO] MatrixAssemblyPI: 63.848 [ms]
[INFO] AdjustPhi: 4.066 [ms]
[INFO] ConstrainPressure: 0.002 [ms]
[INFO] MatrixAssemblyPII: 19.187 [ms]
[OGL LOG][Proc: 0]: global_index_init: 0.219 [ms]
[OGL LOG][Proc: 0]p_local_coeffs: call_update: 0 [ms]
[OGL LOG][Proc: 0]p_non_local_coeffs: call_update: 0 [ms]
[OGL LOG][Proc: 0]p: update_local_matrix_data: 10.001 [ms]
[OGL LOG][Proc: 0]p: update_non_local_matrix_data: 0.071 [ms]
[OGL LOG][Proc: 0]p_matrix: call_update: 4.608 [ms]
[OGL LOG][Proc: 0]p_rhs: call_update: 5.331 [ms]
[OGL LOG][Proc: 0]p: init_precond: 0.044 [ms]
[OGL LOG][StoppingCriterion.H:373] Creating stopping criterion with minIter 891 frequency 9
[OGL LOG][Proc: 0]p: generate_solver: 0.002 [ms]
[OGL LOG][Proc: 0]p: solve: 2366.8 [ms]
[OGL LOG][Proc: 0]p: copy_x_back: 0.837 [ms]
[OGL LOG][lduLduBase.H:330] 
Statistics:
	Time per iteration: 1592 [mu s]
	Time per residual norm calculation: 222.000000 [mu s]
	Time per iteration and DOF: 0.199000 [ns]
	Retrieve results bandwidth 2.389000 [GByte/s]
[OGL LOG][Proc: 0]p: solve_multi_gpu: 2378.9 [ms]
nonehipGKOCG:  Solving for p, Initial residual = 0.343619, Final residual = 8.66861e-05, No Iterations 1486
[INFO] SolveP: 2392.65 [ms]
time step continuity errors : sum local = 4.45085e-09, global = -4.04921e-21, cumulative = -5.02481e-20
[INFO] ContinuityError: 8.323 [ms]
[INFO] CorrectBoundary: 0.628 [ms]
[INFO] PISOStep: 2511.6 [ms]
[INFO] TimeStep: 5549.69 [ms]
ExecutionTime = 71.04 s  ClockTime = 72 s

Time = 0.0035

Courant Number mean: 0.0531349 max: 0.484172
[INFO] MatrixAssemblyU: 56.856 [ms]
DILUPBiCGStab:  Solving for Ux, Initial residual = 0.00709392, Final residual = 0.000147607, No Iterations 5
DILUPBiCGStab:  Solving for Uy, Initial residual = 0.0177267, Final residual = 0.000334376, No Iterations 5
DILUPBiCGStab:  Solving for Uz, Initial residual = 0.0691442, Final residual = 0.00311096, No Iterations 5
[INFO] MomentumPredictor: 474.994 [ms]
[INFO] MatrixAssemblyPI: 66.546 [ms]
[INFO] AdjustPhi: 4.508 [ms]
[INFO] ConstrainPressure: 0.003 [ms]
[INFO] MatrixAssemblyPII: 19.409 [ms]
[OGL LOG][Proc: 0]: global_index_init: 0.391 [ms]
[OGL LOG][Proc: 0]p_local_coeffs: call_update: 0 [ms]
[OGL LOG][Proc: 0]p_non_local_coeffs: call_update: 0 [ms]
[OGL LOG][Proc: 0]p: update_local_matrix_data: 9.744 [ms]
[OGL LOG][Proc: 0]p: update_non_local_matrix_data: 0.118 [ms]
[OGL LOG][Proc: 0]p_matrix: call_update: 9.347 [ms]
[OGL LOG][Proc: 0]p_rhs: call_update: 0.703 [ms]
[OGL LOG][Proc: 0]p: init_precond: 0.036 [ms]
[OGL LOG][StoppingCriterion.H:373] Creating stopping criterion with minIter 891 frequency 9
[OGL LOG][Proc: 0]p: generate_solver: 0.002 [ms]
[OGL LOG][Proc: 0]p: solve: 2341.83 [ms]
[OGL LOG][Proc: 0]p: copy_x_back: 1.094 [ms]
[OGL LOG][lduLduBase.H:330] 
Statistics:
	Time per iteration: 1575 [mu s]
	Time per residual norm calculation: 219.000000 [mu s]
	Time per iteration and DOF: 0.196875 [ns]
	Retrieve results bandwidth 1.828000 [GByte/s]
[OGL LOG][Proc: 0]p: solve_multi_gpu: 2355.93 [ms]
nonehipGKOCG:  Solving for p, Initial residual = 0.347735, Final residual = 8.62324e-05, No Iterations 1486
[INFO] SolveP: 2368.48 [ms]
time step continuity errors : sum local = 4.27949e-09, global = -1.40665e-21, cumulative = -5.16547e-20
[INFO] ContinuityError: 9.204 [ms]
[INFO] CorrectBoundary: 0.204 [ms]
[INFO] PISOStep: 2493.09 [ms]
[INFO] MatrixAssemblyPI: 64.731 [ms]
[INFO] AdjustPhi: 3.549 [ms]
[INFO] ConstrainPressure: 0.002 [ms]
[INFO] MatrixAssemblyPII: 19.522 [ms]
[OGL LOG][Proc: 0]: global_index_init: 0.182 [ms]
[OGL LOG][Proc: 0]p_local_coeffs: call_update: 0 [ms]
[OGL LOG][Proc: 0]p_non_local_coeffs: call_update: 0 [ms]
[OGL LOG][Proc: 0]p: update_local_matrix_data: 10.035 [ms]
[OGL LOG][Proc: 0]p: update_non_local_matrix_data: 0.109 [ms]
[OGL LOG][Proc: 0]p_matrix: call_update: 6.325 [ms]
[OGL LOG][Proc: 0]p_rhs: call_update: 1.998 [ms]
[OGL LOG][Proc: 0]p: init_precond: 0.042 [ms]
[OGL LOG][StoppingCriterion.H:373] Creating stopping criterion with minIter 891 frequency 9
[OGL LOG][Proc: 0]p: generate_solver: 0.002 [ms]
[OGL LOG][Proc: 0]p: solve: 2332.6 [ms]
[OGL LOG][Proc: 0]p: copy_x_back: 1.033 [ms]
[OGL LOG][lduLduBase.H:330] 
Statistics:
	Time per iteration: 1569 [mu s]
	Time per residual norm calculation: 224.000000 [mu s]
	Time per iteration and DOF: 0.196125 [ns]
	Retrieve results bandwidth 1.936000 [GByte/s]
[OGL LOG][Proc: 0]p: solve_multi_gpu: 2343.38 [ms]
nonehipGKOCG:  Solving for p, Initial residual = 0.30829, Final residual = 8.41115e-05, No Iterations 1486
[INFO] SolveP: 2356.69 [ms]
time step continuity errors : sum local = 4.15804e-09, global = -1.2892e-21, cumulative = -5.29439e-20
[INFO] ContinuityError: 6.707 [ms]
[INFO] CorrectBoundary: 0.249 [ms]
[INFO] PISOStep: 2475.62 [ms]
[INFO] TimeStep: 5507.97 [ms]
ExecutionTime = 76.52 s  ClockTime = 78 s

Time = 0.00375

Courant Number mean: 0.054538 max: 0.484612
[INFO] MatrixAssemblyU: 61.102 [ms]
DILUPBiCGStab:  Solving for Ux, Initial residual = 0.00650484, Final residual = 0.000127382, No Iterations 5
DILUPBiCGStab:  Solving for Uy, Initial residual = 0.0158797, Final residual = 0.000287393, No Iterations 5
DILUPBiCGStab:  Solving for Uz, Initial residual = 0.0598545, Final residual = 0.00284226, No Iterations 5
[INFO] MomentumPredictor: 473.626 [ms]
[INFO] MatrixAssemblyPI: 65.897 [ms]
[INFO] AdjustPhi: 4.125 [ms]
[INFO] ConstrainPressure: 0.003 [ms]
[INFO] MatrixAssemblyPII: 18.774 [ms]
[OGL LOG][Proc: 0]: global_index_init: 3.031 [ms]
[OGL LOG][Proc: 0]p_local_coeffs: call_update: 0 [ms]
[OGL LOG][Proc: 0]p_non_local_coeffs: call_update: 0 [ms]
[OGL LOG][Proc: 0]p: update_local_matrix_data: 9.927 [ms]
[OGL LOG][Proc: 0]p: update_non_local_matrix_data: 0.165 [ms]
[OGL LOG][Proc: 0]p_matrix: call_update: 7.06 [ms]
[OGL LOG][Proc: 0]p_rhs: call_update: 1.108 [ms]
[OGL LOG][Proc: 0]p: init_precond: 0.043 [ms]
[OGL LOG][StoppingCriterion.H:373] Creating stopping criterion with minIter 891 frequency 9
[OGL LOG][Proc: 0]p: generate_solver: 0.002 [ms]
[OGL LOG][Proc: 0]p: solve: 2338.8 [ms]
[OGL LOG][Proc: 0]p: copy_x_back: 0.872 [ms]
[OGL LOG][lduLduBase.H:330] 
Statistics:
	Time per iteration: 1573 [mu s]
	Time per residual norm calculation: 223.000000 [mu s]
	Time per iteration and DOF: 0.196625 [ns]
	Retrieve results bandwidth 2.293000 [GByte/s]
[OGL LOG][Proc: 0]p: solve_multi_gpu: 2349.28 [ms]
nonehipGKOCG:  Solving for p, Initial residual = 0.31514, Final residual = 8.2765e-05, No Iterations 1486
[INFO] SolveP: 2365.18 [ms]
time step continuity errors : sum local = 3.93753e-09, global = -3.64477e-21, cumulative = -5.65887e-20
[INFO] ContinuityError: 7.408 [ms]
[INFO] CorrectBoundary: 0.29 [ms]
[INFO] PISOStep: 2489.67 [ms]
[INFO] MatrixAssemblyPI: 62.797 [ms]
[INFO] AdjustPhi: 5.421 [ms]
[INFO] ConstrainPressure: 0.003 [ms]
[INFO] MatrixAssemblyPII: 19.556 [ms]
[OGL LOG][Proc: 0]: global_index_init: 0.272 [ms]
[OGL LOG][Proc: 0]p_local_coeffs: call_update: 0 [ms]
[OGL LOG][Proc: 0]p_non_local_coeffs: call_update: 0 [ms]
[OGL LOG][Proc: 0]p: update_local_matrix_data: 10.128 [ms]
[OGL LOG][Proc: 0]p: update_non_local_matrix_data: 0.079 [ms]
[OGL LOG][Proc: 0]p_matrix: call_update: 6.883 [ms]
[OGL LOG][Proc: 0]p_rhs: call_update: 1.423 [ms]
[OGL LOG][Proc: 0]p: init_precond: 0.048 [ms]
[OGL LOG][StoppingCriterion.H:373] Creating stopping criterion with minIter 891 frequency 9
[OGL LOG][Proc: 0]p: generate_solver: 0.004 [ms]
[OGL LOG][Proc: 0]p: solve: 1390.95 [ms]
[OGL LOG][Proc: 0]p: copy_x_back: 0.85 [ms]
[OGL LOG][lduLduBase.H:330] 
Statistics:
	Time per iteration: 1559 [mu s]
	Time per residual norm calculation: 228.000000 [mu s]
	Time per iteration and DOF: 0.194875 [ns]
	Retrieve results bandwidth 2.352000 [GByte/s]
[OGL LOG][Proc: 0]p: solve_multi_gpu: 1401.31 [ms]
nonehipGKOCG:  Solving for p, Initial residual = 0.277235, Final residual = 9.30114e-05, No Iterations 892
[INFO] SolveP: 1415.29 [ms]
time step continuity errors : sum local = 4.63786e-09, global = -2.73647e-21, cumulative = -5.93252e-20
[INFO] ContinuityError: 7.146 [ms]
[INFO] CorrectBoundary: 0.286 [ms]
[INFO] PISOStep: 1534.61 [ms]
[INFO] TimeStep: 4566.58 [ms]
ExecutionTime = 81.05 s  ClockTime = 82 s

Time = 0.004

Courant Number mean: 0.0558524 max: 0.485076
[INFO] MatrixAssemblyU: 60.879 [ms]
DILUPBiCGStab:  Solving for Ux, Initial residual = 0.00598728, Final residual = 0.000111202, No Iterations 5
DILUPBiCGStab:  Solving for Uy, Initial residual = 0.0145639, Final residual = 0.000243866, No Iterations 5
DILUPBiCGStab:  Solving for Uz, Initial residual = 0.0533083, Final residual = 0.00253263, No Iterations 5
[INFO] MomentumPredictor: 453.771 [ms]
[INFO] MatrixAssemblyPI: 66.929 [ms]
[INFO] AdjustPhi: 5.642 [ms]
[INFO] ConstrainPressure: 0.003 [ms]
[INFO] MatrixAssemblyPII: 19.248 [ms]
[OGL LOG][Proc: 0]: global_index_init: 0.265 [ms]
[OGL LOG][Proc: 0]p_local_coeffs: call_update: 0 [ms]
[OGL LOG][Proc: 0]p_non_local_coeffs: call_update: 0 [ms]
[OGL LOG][Proc: 0]p: update_local_matrix_data: 10.217 [ms]
[OGL LOG][Proc: 0]p: update_non_local_matrix_data: 0.069 [ms]
[OGL LOG][Proc: 0]p_matrix: call_update: 5.961 [ms]
[OGL LOG][Proc: 0]p_rhs: call_update: 2.559 [ms]
[OGL LOG][Proc: 0]p: init_precond: 0.038 [ms]
[OGL LOG][StoppingCriterion.H:373] Creating stopping criterion with minIter 535 frequency 7
[OGL LOG][Proc: 0]p: generate_solver: 0.003 [ms]
[OGL LOG][Proc: 0]p: solve: 2401.64 [ms]
[OGL LOG][Proc: 0]p: copy_x_back: 1.558 [ms]
[OGL LOG][lduLduBase.H:330] 
Statistics:
	Time per iteration: 1617 [mu s]
	Time per residual norm calculation: 220.000000 [mu s]
	Time per iteration and DOF: 0.202125 [ns]
	Retrieve results bandwidth 1.283000 [GByte/s]
[OGL LOG][Proc: 0]p: solve_multi_gpu: 2413.27 [ms]
nonehipGKOCG:  Solving for p, Initial residual = 0.284387, Final residual = 8.82112e-05, No Iterations 1485
[INFO] SolveP: 2425.86 [ms]
time step continuity errors : sum local = 4.04471e-09, global = 2.69091e-22, cumulative = -5.90561e-20
[INFO] ContinuityError: 5.913 [ms]
[INFO] CorrectBoundary: 0.245 [ms]
[INFO] PISOStep: 2552.13 [ms]
[INFO] MatrixAssemblyPI: 63.341 [ms]
[INFO] AdjustPhi: 9.659 [ms]
[INFO] ConstrainPressure: 0.003 [ms]
[INFO] MatrixAssemblyPII: 19.783 [ms]
[OGL LOG][Proc: 0]: global_index_init: 0.059 [ms]
[OGL LOG][Proc: 0]p_local_coeffs: call_update: 0 [ms]
[OGL LOG][Proc: 0]p_non_local_coeffs: call_update: 0 [ms]
[OGL LOG][Proc: 0]p: update_local_matrix_data: 10.197 [ms]
[OGL LOG][Proc: 0]p: update_non_local_matrix_data: 0.069 [ms]
[OGL LOG][Proc: 0]p_matrix: call_update: 6.78 [ms]
[OGL LOG][Proc: 0]p_rhs: call_update: 1.602 [ms]
[OGL LOG][Proc: 0]p: init_precond: 0.044 [ms]
[OGL LOG][StoppingCriterion.H:373] Creating stopping criterion with minIter 891 frequency 9
[OGL LOG][Proc: 0]p: generate_solver: 0.002 [ms]
[OGL LOG][Proc: 0]p: solve: 2278.18 [ms]
[OGL LOG][Proc: 0]p: copy_x_back: 1.274 [ms]
[OGL LOG][lduLduBase.H:330] 
Statistics:
	Time per iteration: 1533 [mu s]
	Time per residual norm calculation: 219.000000 [mu s]
	Time per iteration and DOF: 0.191625 [ns]
	Retrieve results bandwidth 1.569000 [GByte/s]
[OGL LOG][Proc: 0]p: solve_multi_gpu: 2289.29 [ms]
nonehipGKOCG:  Solving for p, Initial residual = 0.251387, Final residual = 7.97842e-05, No Iterations 1486
[INFO] SolveP: 2302.27 [ms]
time step continuity errors : sum local = 3.64701e-09, global = -4.06663e-21, cumulative = -6.31227e-20
[INFO] ContinuityError: 5.902 [ms]
[INFO] CorrectBoundary: 0.241 [ms]
[INFO] PISOStep: 2426.85 [ms]
[INFO] TimeStep: 5500.9 [ms]
ExecutionTime = 86.51 s  ClockTime = 88 s

Time = 0.00425

Courant Number mean: 0.0570919 max: 0.485433
[INFO] MatrixAssemblyU: 60.853 [ms]
DILUPBiCGStab:  Solving for Ux, Initial residual = 0.00553351, Final residual = 9.68254e-05, No Iterations 5
DILUPBiCGStab:  Solving for Uy, Initial residual = 0.013277, Final residual = 0.000222543, No Iterations 5
DILUPBiCGStab:  Solving for Uz, Initial residual = 0.046584, Final residual = 0.00223918, No Iterations 5
[INFO] MomentumPredictor: 450.792 [ms]
[INFO] MatrixAssemblyPI: 66.725 [ms]
[INFO] AdjustPhi: 3.607 [ms]
[INFO] ConstrainPressure: 0.002 [ms]
[INFO] MatrixAssemblyPII: 19.211 [ms]
[OGL LOG][Proc: 0]: global_index_init: 0.311 [ms]
[OGL LOG][Proc: 0]p_local_coeffs: call_update: 0 [ms]
[OGL LOG][Proc: 0]p_non_local_coeffs: call_update: 0 [ms]
[OGL LOG][Proc: 0]p: update_local_matrix_data: 9.709 [ms]
[OGL LOG][Proc: 0]p: update_non_local_matrix_data: 0.18 [ms]
[OGL LOG][Proc: 0]p_matrix: call_update: 4.827 [ms]
[OGL LOG][Proc: 0]p_rhs: call_update: 3.253 [ms]
[OGL LOG][Proc: 0]p: init_precond: 0.039 [ms]
[OGL LOG][StoppingCriterion.H:373] Creating stopping criterion with minIter 891 frequency 9
[OGL LOG][Proc: 0]p: generate_solver: 0.001 [ms]
[OGL LOG][Proc: 0]p: solve: 2440.91 [ms]
[OGL LOG][Proc: 0]p: copy_x_back: 1.081 [ms]
[OGL LOG][lduLduBase.H:330] 
Statistics:
	Time per iteration: 1642 [mu s]
	Time per residual norm calculation: 225.000000 [mu s]
	Time per iteration and DOF: 0.205250 [ns]
	Retrieve results bandwidth 1.850000 [GByte/s]
[OGL LOG][Proc: 0]p: solve_multi_gpu: 2451.62 [ms]
nonehipGKOCG:  Solving for p, Initial residual = 0.254002, Final residual = 7.15788e-05, No Iterations 1486
[INFO] SolveP: 2465.03 [ms]
time step continuity errors : sum local = 3.20687e-09, global = -3.63049e-21, cumulative = -6.67532e-20
[INFO] ContinuityError: 6.186 [ms]
[INFO] CorrectBoundary: 0.375 [ms]
[INFO] PISOStep: 2584.87 [ms]
[INFO] MatrixAssemblyPI: 61.883 [ms]
[INFO] AdjustPhi: 6.882 [ms]
[INFO] ConstrainPressure: 0.003 [ms]
[INFO] MatrixAssemblyPII: 18.715 [ms]
[OGL LOG][Proc: 0]: global_index_init: 0.242 [ms]
[OGL LOG][Proc: 0]p_local_coeffs: call_update: 0 [ms]
[OGL LOG][Proc: 0]p_non_local_coeffs: call_update: 0 [ms]
[OGL LOG][Proc: 0]p: update_local_matrix_data: 9.732 [ms]
[OGL LOG][Proc: 0]p: update_non_local_matrix_data: 0.163 [ms]
[OGL LOG][Proc: 0]p_matrix: call_update: 6.673 [ms]
[OGL LOG][Proc: 0]p_rhs: call_update: 2.675 [ms]
[OGL LOG][Proc: 0]p: init_precond: 0.043 [ms]
[OGL LOG][StoppingCriterion.H:373] Creating stopping criterion with minIter 891 frequency 9
[OGL LOG][Proc: 0]p: generate_solver: 0.002 [ms]
[OGL LOG][Proc: 0]p: solve: 2282.24 [ms]
[OGL LOG][Proc: 0]p: copy_x_back: 1.256 [ms]
[OGL LOG][lduLduBase.H:330] 
Statistics:
	Time per iteration: 1545 [mu s]
	Time per residual norm calculation: 219.000000 [mu s]
	Time per iteration and DOF: 0.193125 [ns]
	Retrieve results bandwidth 1.592000 [GByte/s]
[OGL LOG][Proc: 0]p: solve_multi_gpu: 2294.35 [ms]
nonehipGKOCG:  Solving for p, Initial residual = 0.223022, Final residual = 9.4483e-05, No Iterations 1477
[INFO] SolveP: 2307.11 [ms]
time step continuity errors : sum local = 4.23603e-09, global = -3.68156e-21, cumulative = -7.04348e-20
[INFO] ContinuityError: 6.673 [ms]
[INFO] CorrectBoundary: 0.274 [ms]
[INFO] PISOStep: 2426.26 [ms]
[INFO] TimeStep: 5532.85 [ms]
ExecutionTime = 92 s  ClockTime = 93 s

Time = 0.0045

Courant Number mean: 0.0582616 max: 0.485805
[INFO] MatrixAssemblyU: 60.903 [ms]
DILUPBiCGStab:  Solving for Ux, Initial residual = 0.00514175, Final residual = 8.57224e-05, No Iterations 5
DILUPBiCGStab:  Solving for Uy, Initial residual = 0.0123016, Final residual = 0.000192968, No Iterations 5
DILUPBiCGStab:  Solving for Uz, Initial residual = 0.0417094, Final residual = 0.00197121, No Iterations 5
[INFO] MomentumPredictor: 460.065 [ms]
[INFO] MatrixAssemblyPI: 66.404 [ms]
[INFO] AdjustPhi: 3.668 [ms]
[INFO] ConstrainPressure: 0.003 [ms]
[INFO] MatrixAssemblyPII: 19.12 [ms]
[OGL LOG][Proc: 0]: global_index_init: 0.179 [ms]
[OGL LOG][Proc: 0]p_local_coeffs: call_update: 0 [ms]
[OGL LOG][Proc: 0]p_non_local_coeffs: call_update: 0 [ms]
[OGL LOG][Proc: 0]p: update_local_matrix_data: 9.543 [ms]
[OGL LOG][Proc: 0]p: update_non_local_matrix_data: 0.166 [ms]
[OGL LOG][Proc: 0]p_matrix: call_update: 6.691 [ms]
[OGL LOG][Proc: 0]p_rhs: call_update: 2.038 [ms]
[OGL LOG][Proc: 0]p: init_precond: 0.038 [ms]
[OGL LOG][StoppingCriterion.H:373] Creating stopping criterion with minIter 886 frequency 9
[OGL LOG][Proc: 0]p: generate_solver: 0.001 [ms]
[OGL LOG][Proc: 0]p: solve: 2429.3 [ms]
[OGL LOG][Proc: 0]p: copy_x_back: 1.58 [ms]
[OGL LOG][lduLduBase.H:330] 
Statistics:
	Time per iteration: 1644 [mu s]
	Time per residual norm calculation: 218.000000 [mu s]
	Time per iteration and DOF: 0.205500 [ns]
	Retrieve results bandwidth 1.265000 [GByte/s]
[OGL LOG][Proc: 0]p: solve_multi_gpu: 2441.6 [ms]
nonehipGKOCG:  Solving for p, Initial residual = 0.230536, Final residual = 9.1399e-05, No Iterations 1477
[INFO] SolveP: 2453.56 [ms]
time step continuity errors : sum local = 3.94529e-09, global = -5.08434e-21, cumulative = -7.55191e-20
[INFO] ContinuityError: 5.726 [ms]
[INFO] CorrectBoundary: 0.239 [ms]
[INFO] PISOStep: 2574.69 [ms]
[INFO] MatrixAssemblyPI: 63.47 [ms]
[INFO] AdjustPhi: 7.259 [ms]
[INFO] ConstrainPressure: 0.003 [ms]
[INFO] MatrixAssemblyPII: 20.014 [ms]
[OGL LOG][Proc: 0]: global_index_init: 0.233 [ms]
[OGL LOG][Proc: 0]p_local_coeffs: call_update: 0 [ms]
[OGL LOG][Proc: 0]p_non_local_coeffs: call_update: 0 [ms]
[OGL LOG][Proc: 0]p: update_local_matrix_data: 10.203 [ms]
[OGL LOG][Proc: 0]p: update_non_local_matrix_data: 0.067 [ms]
[OGL LOG][Proc: 0]p_matrix: call_update: 6.434 [ms]
[OGL LOG][Proc: 0]p_rhs: call_update: 2.43 [ms]
[OGL LOG][Proc: 0]p: init_precond: 0.042 [ms]
[OGL LOG][StoppingCriterion.H:373] Creating stopping criterion with minIter 886 frequency 9
[OGL LOG][Proc: 0]p: generate_solver: 0.002 [ms]
[OGL LOG][Proc: 0]p: solve: 2277.52 [ms]
[OGL LOG][Proc: 0]p: copy_x_back: 1.223 [ms]
[OGL LOG][lduLduBase.H:330] 
Statistics:
	Time per iteration: 1541 [mu s]
	Time per residual norm calculation: 224.000000 [mu s]
	Time per iteration and DOF: 0.192625 [ns]
	Retrieve results bandwidth 1.635000 [GByte/s]
[OGL LOG][Proc: 0]p: solve_multi_gpu: 2288.86 [ms]
nonehipGKOCG:  Solving for p, Initial residual = 0.203249, Final residual = 8.37915e-05, No Iterations 1477
[INFO] SolveP: 2301.31 [ms]
time step continuity errors : sum local = 3.60841e-09, global = -5.47481e-21, cumulative = -8.09939e-20
[INFO] ContinuityError: 7.491 [ms]
[INFO] CorrectBoundary: 0.26 [ms]
[INFO] PISOStep: 2424 [ms]
[INFO] TimeStep: 5526.94 [ms]
ExecutionTime = 97.49 s  ClockTime = 99 s

Time = 0.00475

Courant Number mean: 0.0593699 max: 0.486103
[INFO] MatrixAssemblyU: 60.741 [ms]
DILUPBiCGStab:  Solving for Ux, Initial residual = 0.00478848, Final residual = 7.54978e-05, No Iterations 5
DILUPBiCGStab:  Solving for Uy, Initial residual = 0.0113344, Final residual = 0.000180088, No Iterations 5
DILUPBiCGStab:  Solving for Uz, Initial residual = 0.0368407, Final residual = 0.00173094, No Iterations 5
[INFO] MomentumPredictor: 450.949 [ms]
[INFO] MatrixAssemblyPI: 67.35 [ms]
[INFO] AdjustPhi: 3.081 [ms]
[INFO] ConstrainPressure: 0.003 [ms]
[INFO] MatrixAssemblyPII: 19.039 [ms]
[OGL LOG][Proc: 0]: global_index_init: 0.212 [ms]
[OGL LOG][Proc: 0]p_local_coeffs: call_update: 0 [ms]
[OGL LOG][Proc: 0]p_non_local_coeffs: call_update: 0 [ms]
[OGL LOG][Proc: 0]p: update_local_matrix_data: 9.6 [ms]
[OGL LOG][Proc: 0]p: update_non_local_matrix_data: 0.333 [ms]
[OGL LOG][Proc: 0]p_matrix: call_update: 5.4 [ms]
[OGL LOG][Proc: 0]p_rhs: call_update: 3.172 [ms]
[OGL LOG][Proc: 0]p: init_precond: 0.039 [ms]
[OGL LOG][StoppingCriterion.H:373] Creating stopping criterion with minIter 886 frequency 9
[OGL LOG][Proc: 0]p: generate_solver: 0.002 [ms]
[OGL LOG][Proc: 0]p: solve: 2421.09 [ms]
[OGL LOG][Proc: 0]p: copy_x_back: 1.113 [ms]
[OGL LOG][lduLduBase.H:330] 
Statistics:
	Time per iteration: 1639 [mu s]
	Time per residual norm calculation: 226.000000 [mu s]
	Time per iteration and DOF: 0.204875 [ns]
	Retrieve results bandwidth 1.796000 [GByte/s]
[OGL LOG][Proc: 0]p: solve_multi_gpu: 2432.5 [ms]
nonehipGKOCG:  Solving for p, Initial residual = 0.204144, Final residual = 7.77689e-05, No Iterations 1477
[INFO] SolveP: 2446.23 [ms]
time step continuity errors : sum local = 3.32037e-09, global = -3.0853e-21, cumulative = -8.40792e-20
[INFO] ContinuityError: 5.983 [ms]
[INFO] CorrectBoundary: 0.316 [ms]
[INFO] PISOStep: 2566.64 [ms]
[INFO] MatrixAssemblyPI: 62.256 [ms]
[INFO] AdjustPhi: 5.498 [ms]
[INFO] ConstrainPressure: 0.002 [ms]
[INFO] MatrixAssemblyPII: 18.636 [ms]
[OGL LOG][Proc: 0]: global_index_init: 0.26 [ms]
[OGL LOG][Proc: 0]p_local_coeffs: call_update: 0 [ms]
[OGL LOG][Proc: 0]p_non_local_coeffs: call_update: 0 [ms]
[OGL LOG][Proc: 0]p: update_local_matrix_data: 9.496 [ms]
[OGL LOG][Proc: 0]p: update_non_local_matrix_data: 0.169 [ms]
[OGL LOG][Proc: 0]p_matrix: call_update: 4.169 [ms]
[OGL LOG][Proc: 0]p_rhs: call_update: 3.477 [ms]
[OGL LOG][Proc: 0]p: init_precond: 0.042 [ms]
[OGL LOG][StoppingCriterion.H:373] Creating stopping criterion with minIter 886 frequency 9
[OGL LOG][Proc: 0]p: generate_solver: 0.002 [ms]
[OGL LOG][Proc: 0]p: solve: 2285 [ms]
[OGL LOG][Proc: 0]p: copy_x_back: 0.881 [ms]
[OGL LOG][lduLduBase.H:330] 
Statistics:
	Time per iteration: 1547 [mu s]
	Time per residual norm calculation: 221.000000 [mu s]
	Time per iteration and DOF: 0.193375 [ns]
	Retrieve results bandwidth 2.270000 [GByte/s]
[OGL LOG][Proc: 0]p: solve_multi_gpu: 2298.34 [ms]
nonehipGKOCG:  Solving for p, Initial residual = 0.178956, Final residual = 7.27547e-05, No Iterations 1477
[INFO] SolveP: 2311.97 [ms]
time step continuity errors : sum local = 3.1074e-09, global = -2.97718e-21, cumulative = -8.70564e-20
[INFO] ContinuityError: 6.133 [ms]
[INFO] CorrectBoundary: 0.252 [ms]
[INFO] PISOStep: 2429.86 [ms]
[INFO] TimeStep: 5515.39 [ms]
ExecutionTime = 102.96 s  ClockTime = 104 s

Time = 0.005

Courant Number mean: 0.060421 max: 0.486409
[INFO] MatrixAssemblyU: 60.882 [ms]
DILUPBiCGStab:  Solving for Ux, Initial residual = 0.00448521, Final residual = 6.78103e-05, No Iterations 5
DILUPBiCGStab:  Solving for Uy, Initial residual = 0.0105918, Final residual = 0.000158818, No Iterations 5
DILUPBiCGStab:  Solving for Uz, Initial residual = 0.0335063, Final residual = 0.0015128, No Iterations 5
[INFO] MomentumPredictor: 456.245 [ms]
[INFO] MatrixAssemblyPI: 66.916 [ms]
[INFO] AdjustPhi: 3.831 [ms]
[INFO] ConstrainPressure: 0.003 [ms]
[INFO] MatrixAssemblyPII: 19.303 [ms]
[OGL LOG][Proc: 0]: global_index_init: 0.325 [ms]
[OGL LOG][Proc: 0]p_local_coeffs: call_update: 0 [ms]
[OGL LOG][Proc: 0]p_non_local_coeffs: call_update: 0 [ms]
[OGL LOG][Proc: 0]p: update_local_matrix_data: 10.209 [ms]
[OGL LOG][Proc: 0]p: update_non_local_matrix_data: 0.067 [ms]
[OGL LOG][Proc: 0]p_matrix: call_update: 4.683 [ms]
[OGL LOG][Proc: 0]p_rhs: call_update: 4.475 [ms]
[OGL LOG][Proc: 0]p: init_precond: 0.048 [ms]
[OGL LOG][StoppingCriterion.H:373] Creating stopping criterion with minIter 886 frequency 9
[OGL LOG][Proc: 0]p: generate_solver: 0.004 [ms]
[OGL LOG][Proc: 0]p: solve: 2382.34 [ms]
[OGL LOG][Proc: 0]p: copy_x_back: 1.61 [ms]
[OGL LOG][lduLduBase.H:330] 
Statistics:
	Time per iteration: 1622 [mu s]
	Time per residual norm calculation: 220.000000 [mu s]
	Time per iteration and DOF: 0.202750 [ns]
	Retrieve results bandwidth 1.242000 [GByte/s]
[OGL LOG][Proc: 0]p: solve_multi_gpu: 2394.49 [ms]
nonehipGKOCG:  Solving for p, Initial residual = 0.185543, Final residual = 9.57856e-05, No Iterations 1468
[INFO] SolveP: 2407.27 [ms]
time step continuity errors : sum local = 3.95082e-09, global = -3.92165e-21, cumulative = -9.09781e-20
[INFO] ContinuityError: 5.696 [ms]
[INFO] CorrectBoundary: 0.206 [ms]
[INFO] PISOStep: 2529.06 [ms]
[INFO] MatrixAssemblyPI: 63.021 [ms]
[INFO] AdjustPhi: 5.111 [ms]
[INFO] ConstrainPressure: 0.003 [ms]
[INFO] MatrixAssemblyPII: 19.806 [ms]
[OGL LOG][Proc: 0]: global_index_init: 0.096 [ms]
[OGL LOG][Proc: 0]p_local_coeffs: call_update: 0 [ms]
[OGL LOG][Proc: 0]p_non_local_coeffs: call_update: 0 [ms]
[OGL LOG][Proc: 0]p: update_local_matrix_data: 10.294 [ms]
[OGL LOG][Proc: 0]p: update_non_local_matrix_data: 0.062 [ms]
[OGL LOG][Proc: 0]p_matrix: call_update: 5.495 [ms]
[OGL LOG][Proc: 0]p_rhs: call_update: 2.696 [ms]
[OGL LOG][Proc: 0]p: init_precond: 0.041 [ms]
[OGL LOG][StoppingCriterion.H:373] Creating stopping criterion with minIter 880 frequency 9
[OGL LOG][Proc: 0]p: generate_solver: 0.002 [ms]
[OGL LOG][Proc: 0]p: solve: 2276.74 [ms]
[OGL LOG][Proc: 0]p: copy_x_back: 0.897 [ms]
[OGL LOG][lduLduBase.H:330] 
Statistics:
	Time per iteration: 1550 [mu s]
	Time per residual norm calculation: 219.000000 [mu s]
	Time per iteration and DOF: 0.193750 [ns]
	Retrieve results bandwidth 2.229000 [GByte/s]
[OGL LOG][Proc: 0]p: solve_multi_gpu: 2286.93 [ms]
nonehipGKOCG:  Solving for p, Initial residual = 0.163245, Final residual = 8.9552e-05, No Iterations 1468
[INFO] SolveP: 2301.08 [ms]
time step continuity errors : sum local = 3.6875e-09, global = -3.47115e-21, cumulative = -9.44492e-20
[INFO] ContinuityError: 7.565 [ms]
[INFO] CorrectBoundary: 0.289 [ms]
[INFO] PISOStep: 2420.76 [ms]
[INFO] TimeStep: 5474.59 [ms]
ExecutionTime = 108.39 s  ClockTime = 110 s

End

Finalising parallel run
