/*---------------------------------------------------------------------------*\
| =========                 |                                                 |
| \\      /  F ield         | OpenFOAM: The Open Source CFD Toolbox           |
|  \\    /   O peration     | Version:  2212                                  |
|   \\  /    A nd           | Website:  www.openfoam.com                      |
|    \\/     M anipulation  |                                                 |
\*---------------------------------------------------------------------------*/
Build  : 5614a57-20230228 OPENFOAM=2212 patch=230110 version=v2212
Arch   : "LSB;label=32;scalar=64"
Exec   : icoFoam -parallel -case /home/greole/data/code/exasim-project/micro_benchmarks/LidDrivenCavity3D/workspace/ed5d93fca86aac6b4de003a79b59963a/case
Date   : Jul 02 2023
Time   : 08:52:53
Host   : guyot
PID    : 2396133
I/O    : uncollated
Case   : /home/greole/data/code/exasim-project/micro_benchmarks/LidDrivenCavity3D/workspace/ed5d93fca86aac6b4de003a79b59963a/case
nProcs : 32
Hosts  :
(
    (guyot 32)
)
Pstream initialized with:
    floatTransfer      : 0
    nProcsSimpleSum    : 0
    commsType          : nonBlocking
    polling iterations : 0
trapFpe: Floating point exception trapping enabled (FOAM_SIGFPE).
fileModificationChecking : Monitoring run-time modified files using timeStampMaster (fileModificationSkew 5, maxFileModificationPolls 20)
allowSystemOperations : Allowing user-supplied system call operations

// * * * * * * * * * * * * * * * * * * * * * * * * * * * * * * * * * * * * * //
Create time

--> FOAM Warning : 
    From void* Foam::dlLibraryTable::openLibrary(const Foam::fileName&, bool)
    in file db/dynamicLibrary/dlLibraryTable/dlLibraryTable.C at line 188
    Could not load "libpetscFoam.so"
libpetscFoam.so: cannot open shared object file: No such file or directory
Create mesh for time = 0


PISO: Operating solver in PISO mode

Reading transportProperties

Reading field p

Reading field U

Reading/calculating face flux field phi


Starting time loop

Time = 0.000166

Courant Number mean: 8.14055e-18 max: 3.11001e-14
[INFO] MatrixAssemblyU: 860.619 [ms]
DILUPBiCGStab:  Solving for Ux, Initial residual = 1, Final residual = 0.0163135, No Iterations 5
DILUPBiCGStab:  Solving for Uy:  solution singularity
DILUPBiCGStab:  Solving for Uz:  solution singularity
[INFO] MomentumPredictor: 2960.78 [ms]
[INFO] MatrixAssemblyPI: 900.68 [ms]
[INFO] AdjustPhi: 50.471 [ms]
[INFO] ConstrainPressure: 0.008 [ms]
[INFO] MatrixAssemblyPII: 249.063 [ms]
nonePCG:  Solving for p, Initial residual = 1, Final residual = 9.97931e-05, No Iterations 2429
[INFO] SolveP: 217251 [ms]
time step continuity errors : sum local = 4.03245e-09, global = 2.12499e-21, cumulative = 2.12499e-21
[INFO] ContinuityError: 85.902 [ms]
[INFO] CorrectBoundary: 3.631 [ms]
[INFO] PISOStep: 218830 [ms]
[INFO] MatrixAssemblyPI: 846.365 [ms]
[INFO] AdjustPhi: 52.105 [ms]
[INFO] ConstrainPressure: 0.013 [ms]
[INFO] MatrixAssemblyPII: 249.05 [ms]
nonePCG:  Solving for p, Initial residual = 0.80945, Final residual = 9.98155e-05, No Iterations 2416
[INFO] SolveP: 216090 [ms]
time step continuity errors : sum local = 4.92327e-09, global = 8.64555e-22, cumulative = 2.98955e-21
[INFO] ContinuityError: 86.287 [ms]
[INFO] CorrectBoundary: 1.673 [ms]
[INFO] PISOStep: 217615 [ms]
[INFO] TimeStep: 440357 [ms]
ExecutionTime = 437.86 s  ClockTime = 442 s

Time = 0.000332

Courant Number mean: 0.0128238 max: 0.426584
[INFO] MatrixAssemblyU: 797.053 [ms]
DILUPBiCGStab:  Solving for Ux, Initial residual = 0.116949, Final residual = 0.00993047, No Iterations 5
DILUPBiCGStab:  Solving for Uy, Initial residual = 0.460127, Final residual = 0.0326302, No Iterations 5
DILUPBiCGStab:  Solving for Uz, Initial residual = 0.988821, Final residual = 0.0765138, No Iterations 5
[INFO] MomentumPredictor: 5775.37 [ms]
[INFO] MatrixAssemblyPI: 877.401 [ms]
[INFO] AdjustPhi: 47.231 [ms]
[INFO] ConstrainPressure: 0.002 [ms]
[INFO] MatrixAssemblyPII: 248.966 [ms]
nonePCG:  Solving for p, Initial residual = 0.881299, Final residual = 9.66348e-05, No Iterations 2380
[INFO] SolveP: 212899 [ms]
time step continuity errors : sum local = 9.4103e-09, global = -6.91023e-23, cumulative = 2.92045e-21
[INFO] ContinuityError: 85.947 [ms]
[INFO] CorrectBoundary: 2.307 [ms]
[INFO] PISOStep: 214451 [ms]
[INFO] MatrixAssemblyPI: 849.362 [ms]
[INFO] AdjustPhi: 49.529 [ms]
[INFO] ConstrainPressure: 0.014 [ms]
[INFO] MatrixAssemblyPII: 247.739 [ms]
nonePCG:  Solving for p, Initial residual = 0.829027, Final residual = 9.7212e-05, No Iterations 2376
[INFO] SolveP: 212596 [ms]
time step continuity errors : sum local = 9.64521e-09, global = 3.47035e-22, cumulative = 3.26748e-21
[INFO] ContinuityError: 86.572 [ms]
[INFO] CorrectBoundary: 3.548 [ms]
[INFO] PISOStep: 214121 [ms]
[INFO] TimeStep: 435233 [ms]
ExecutionTime = 869.01 s  ClockTime = 878 s

Time = 0.000498

Courant Number mean: 0.019784 max: 0.492001
[INFO] MatrixAssemblyU: 793.214 [ms]
DILUPBiCGStab:  Solving for Ux, Initial residual = 0.0544453, Final residual = 0.00371398, No Iterations 5
DILUPBiCGStab:  Solving for Uy, Initial residual = 0.226654, Final residual = 0.0167554, No Iterations 5
DILUPBiCGStab:  Solving for Uz, Initial residual = 0.849595, Final residual = 0.054899, No Iterations 5
[INFO] MomentumPredictor: 5779.32 [ms]
[INFO] MatrixAssemblyPI: 876.02 [ms]
[INFO] AdjustPhi: 48.449 [ms]
[INFO] ConstrainPressure: 0.002 [ms]
[INFO] MatrixAssemblyPII: 248.183 [ms]
nonePCG:  Solving for p, Initial residual = 0.914894, Final residual = 9.9159e-05, No Iterations 1153
[INFO] SolveP: 103238 [ms]
time step continuity errors : sum local = 1.09599e-08, global = 1.01281e-21, cumulative = 4.28029e-21
[INFO] ContinuityError: 86.134 [ms]
[INFO] CorrectBoundary: 3.056 [ms]
[INFO] PISOStep: 104790 [ms]
[INFO] MatrixAssemblyPI: 842.429 [ms]
[INFO] AdjustPhi: 56.061 [ms]
[INFO] ConstrainPressure: 0.015 [ms]
[INFO] MatrixAssemblyPII: 248.843 [ms]
nonePCG:  Solving for p, Initial residual = 0.883114, Final residual = 9.99261e-05, No Iterations 1150
[INFO] SolveP: 103007 [ms]
time step continuity errors : sum local = 1.05624e-08, global = 5.98429e-22, cumulative = 4.87872e-21
[INFO] ContinuityError: 86.853 [ms]
[INFO] CorrectBoundary: 4.057 [ms]
[INFO] PISOStep: 104533 [ms]
[INFO] TimeStep: 215983 [ms]
ExecutionTime = 1082.96 s  ClockTime = 1094 s

Time = 0.000664

Courant Number mean: 0.0238679 max: 0.471986
[INFO] MatrixAssemblyU: 799.147 [ms]
DILUPBiCGStab:  Solving for Ux, Initial residual = 0.0385407, Final residual = 0.00298163, No Iterations 5
DILUPBiCGStab:  Solving for Uy, Initial residual = 0.174159, Final residual = 0.0136322, No Iterations 5
DILUPBiCGStab:  Solving for Uz, Initial residual = 0.736383, Final residual = 0.039821, No Iterations 5
[INFO] MomentumPredictor: 5776.91 [ms]
[INFO] MatrixAssemblyPI: 873.082 [ms]
[INFO] AdjustPhi: 50.845 [ms]
[INFO] ConstrainPressure: 0.003 [ms]
[INFO] MatrixAssemblyPII: 248.588 [ms]
nonePCG:  Solving for p, Initial residual = 0.892502, Final residual = 9.88229e-05, No Iterations 1295
[INFO] SolveP: 115912 [ms]
time step continuity errors : sum local = 1.20348e-08, global = -6.91778e-22, cumulative = 4.18694e-21
[INFO] ContinuityError: 86.421 [ms]
[INFO] CorrectBoundary: 2.4 [ms]
[INFO] PISOStep: 117463 [ms]
[INFO] MatrixAssemblyPI: 848.499 [ms]
[INFO] AdjustPhi: 50.221 [ms]
[INFO] ConstrainPressure: 0.015 [ms]
[INFO] MatrixAssemblyPII: 248.25 [ms]
nonePCG:  Solving for p, Initial residual = 0.832079, Final residual = 9.87667e-05, No Iterations 1154
[INFO] SolveP: 103342 [ms]
time step continuity errors : sum local = 1.16464e-08, global = 6.86483e-22, cumulative = 4.87343e-21
[INFO] ContinuityError: 86.312 [ms]
[INFO] CorrectBoundary: 4.148 [ms]
[INFO] PISOStep: 104868 [ms]
[INFO] TimeStep: 228995 [ms]
ExecutionTime = 1309.82 s  ClockTime = 1323 s

Time = 0.00083

Courant Number mean: 0.0273794 max: 0.505306
[INFO] MatrixAssemblyU: 789.481 [ms]
DILUPBiCGStab:  Solving for Ux, Initial residual = 0.0324487, Final residual = 0.00255799, No Iterations 5
DILUPBiCGStab:  Solving for Uy, Initial residual = 0.130085, Final residual = 0.0115348, No Iterations 5
DILUPBiCGStab:  Solving for Uz, Initial residual = 0.685855, Final residual = 0.0351842, No Iterations 5
[INFO] MomentumPredictor: 5780.2 [ms]
[INFO] MatrixAssemblyPI: 878.755 [ms]
[INFO] AdjustPhi: 45.855 [ms]
[INFO] ConstrainPressure: 0.003 [ms]
[INFO] MatrixAssemblyPII: 249.573 [ms]
nonePCG:  Solving for p, Initial residual = 0.912073, Final residual = 9.934e-05, No Iterations 2377
[INFO] SolveP: 212615 [ms]
time step continuity errors : sum local = 1.11351e-08, global = -3.24011e-22, cumulative = 4.54942e-21
[INFO] ContinuityError: 87.017 [ms]
[INFO] CorrectBoundary: 3.043 [ms]
[INFO] PISOStep: 214167 [ms]
[INFO] MatrixAssemblyPI: 849.701 [ms]
[INFO] AdjustPhi: 48.814 [ms]
[INFO] ConstrainPressure: 0.013 [ms]
[INFO] MatrixAssemblyPII: 249.484 [ms]
nonePCG:  Solving for p, Initial residual = 0.873674, Final residual = 9.76898e-05, No Iterations 2376
[INFO] SolveP: 212658 [ms]
time step continuity errors : sum local = 1.08091e-08, global = 1.02005e-21, cumulative = 5.56946e-21
[INFO] ContinuityError: 85.996 [ms]
[INFO] CorrectBoundary: 2.529 [ms]
[INFO] PISOStep: 214185 [ms]
[INFO] TimeStep: 435009 [ms]
ExecutionTime = 1740.76 s  ClockTime = 1758 s

Time = 0.000996

Courant Number mean: 0.0301078 max: 0.478345
[INFO] MatrixAssemblyU: 793.256 [ms]
DILUPBiCGStab:  Solving for Ux, Initial residual = 0.0271519, Final residual = 0.00232948, No Iterations 5
DILUPBiCGStab:  Solving for Uy, Initial residual = 0.112279, Final residual = 0.00922794, No Iterations 5
DILUPBiCGStab:  Solving for Uz, Initial residual = 0.59015, Final residual = 0.0274725, No Iterations 5
[INFO] MomentumPredictor: 5779.4 [ms]
[INFO] MatrixAssemblyPI: 877.614 [ms]
[INFO] AdjustPhi: 46.769 [ms]
[INFO] ConstrainPressure: 0.002 [ms]
[INFO] MatrixAssemblyPII: 249.26 [ms]
nonePCG:  Solving for p, Initial residual = 0.890411, Final residual = 9.77212e-05, No Iterations 2372
[INFO] SolveP: 212159 [ms]
time step continuity errors : sum local = 1.12301e-08, global = 1.16614e-21, cumulative = 6.73561e-21
[INFO] ContinuityError: 88.432 [ms]
[INFO] CorrectBoundary: 3.809 [ms]
[INFO] PISOStep: 213713 [ms]
[INFO] MatrixAssemblyPI: 850.996 [ms]
[INFO] AdjustPhi: 47.629 [ms]
[INFO] ConstrainPressure: 0.012 [ms]
[INFO] MatrixAssemblyPII: 249.287 [ms]
nonePCG:  Solving for p, Initial residual = 0.827117, Final residual = 9.97722e-05, No Iterations 2365
[INFO] SolveP: 211683 [ms]
time step continuity errors : sum local = 1.16384e-08, global = 1.02519e-21, cumulative = 7.7608e-21
[INFO] ContinuityError: 86.755 [ms]
[INFO] CorrectBoundary: 3.737 [ms]
[INFO] PISOStep: 213208 [ms]
[INFO] TimeStep: 433582 [ms]
ExecutionTime = 2170.3 s  ClockTime = 2191 s

Time = 0.001162

Courant Number mean: 0.0325679 max: 0.512353
[INFO] MatrixAssemblyU: 796.414 [ms]
DILUPBiCGStab:  Solving for Ux, Initial residual = 0.0246342, Final residual = 0.00216055, No Iterations 5
DILUPBiCGStab:  Solving for Uy, Initial residual = 0.0988504, Final residual = 0.00848363, No Iterations 5
DILUPBiCGStab:  Solving for Uz, Initial residual = 0.564068, Final residual = 0.0243139, No Iterations 5
[INFO] MomentumPredictor: 5773.83 [ms]
[INFO] MatrixAssemblyPI: 875.864 [ms]
[INFO] AdjustPhi: 48.562 [ms]
[INFO] ConstrainPressure: 0.003 [ms]
[INFO] MatrixAssemblyPII: 248.701 [ms]
nonePCG:  Solving for p, Initial residual = 0.907992, Final residual = 9.84169e-05, No Iterations 2100
[INFO] SolveP: 187872 [ms]
time step continuity errors : sum local = 1.10206e-08, global = -1.13008e-22, cumulative = 7.64779e-21
[INFO] ContinuityError: 86.137 [ms]
[INFO] CorrectBoundary: 1.843 [ms]
[INFO] PISOStep: 189423 [ms]
[INFO] MatrixAssemblyPI: 850.022 [ms]
[INFO] AdjustPhi: 49.176 [ms]
[INFO] ConstrainPressure: 0.014 [ms]
[INFO] MatrixAssemblyPII: 248.526 [ms]
nonePCG:  Solving for p, Initial residual = 0.862812, Final residual = 9.85834e-05, No Iterations 2097
[INFO] SolveP: 187706 [ms]
time step continuity errors : sum local = 1.09182e-08, global = 8.44735e-22, cumulative = 8.49253e-21
[INFO] ContinuityError: 87.379 [ms]
[INFO] CorrectBoundary: 3.517 [ms]
[INFO] PISOStep: 189232 [ms]
[INFO] TimeStep: 385313 [ms]
ExecutionTime = 2551.99 s  ClockTime = 2577 s

Time = 0.001328

Courant Number mean: 0.0346367 max: 0.481266
[INFO] MatrixAssemblyU: 789.47 [ms]
DILUPBiCGStab:  Solving for Ux, Initial residual = 0.0222322, Final residual = 0.00202485, No Iterations 5
DILUPBiCGStab:  Solving for Uy, Initial residual = 0.0875479, Final residual = 0.00712976, No Iterations 5
DILUPBiCGStab:  Solving for Uz, Initial residual = 0.521676, Final residual = 0.0219653, No Iterations 5
[INFO] MomentumPredictor: 5781.19 [ms]
[INFO] MatrixAssemblyPI: 875.394 [ms]
[INFO] AdjustPhi: 48.678 [ms]
[INFO] ConstrainPressure: 0.003 [ms]
[INFO] MatrixAssemblyPII: 248.315 [ms]
nonePCG:  Solving for p, Initial residual = 0.886763, Final residual = 9.88932e-05, No Iterations 2312
[INFO] SolveP: 206772 [ms]
time step continuity errors : sum local = 1.12758e-08, global = -1.69409e-22, cumulative = 8.32312e-21
[INFO] ContinuityError: 86.144 [ms]
[INFO] CorrectBoundary: 2.208 [ms]
[INFO] PISOStep: 208323 [ms]
[INFO] MatrixAssemblyPI: 844.902 [ms]
[INFO] AdjustPhi: 53.624 [ms]
[INFO] ConstrainPressure: 0.015 [ms]
[INFO] MatrixAssemblyPII: 248.526 [ms]
nonePCG:  Solving for p, Initial residual = 0.820864, Final residual = 9.91618e-05, No Iterations 2305
[INFO] SolveP: 206277 [ms]
time step continuity errors : sum local = 1.14605e-08, global = 4.12155e-22, cumulative = 8.73528e-21
[INFO] ContinuityError: 87.271 [ms]
[INFO] CorrectBoundary: 1.511 [ms]
[INFO] PISOStep: 207803 [ms]
[INFO] TimeStep: 422785 [ms]
ExecutionTime = 2970.79 s  ClockTime = 2999 s

Time = 0.001494

Courant Number mean: 0.036568 max: 0.518553
[INFO] MatrixAssemblyU: 794.697 [ms]
DILUPBiCGStab:  Solving for Ux, Initial residual = 0.0206517, Final residual = 0.00188668, No Iterations 5
DILUPBiCGStab:  Solving for Uy, Initial residual = 0.0824743, Final residual = 0.00672615, No Iterations 5
DILUPBiCGStab:  Solving for Uz, Initial residual = 0.51617, Final residual = 0.0204719, No Iterations 5
[INFO] MomentumPredictor: 5774.88 [ms]
[INFO] MatrixAssemblyPI: 877.154 [ms]
[INFO] AdjustPhi: 46.794 [ms]
[INFO] ConstrainPressure: 0.003 [ms]
[INFO] MatrixAssemblyPII: 249.071 [ms]
nonePCG:  Solving for p, Initial residual = 0.903875, Final residual = 9.82105e-05, No Iterations 2205
[INFO] SolveP: 197244 [ms]
time step continuity errors : sum local = 1.09489e-08, global = -1.48859e-22, cumulative = 8.58642e-21
[INFO] ContinuityError: 86.651 [ms]
[INFO] CorrectBoundary: 3.634 [ms]
[INFO] PISOStep: 198795 [ms]
[INFO] MatrixAssemblyPI: 846.938 [ms]
[INFO] AdjustPhi: 51.578 [ms]
[INFO] ConstrainPressure: 0.012 [ms]
[INFO] MatrixAssemblyPII: 249.146 [ms]
nonePCG:  Solving for p, Initial residual = 0.854166, Final residual = 9.97421e-05, No Iterations 2202
[INFO] SolveP: 197123 [ms]
time step continuity errors : sum local = 1.10113e-08, global = 1.92623e-22, cumulative = 8.77904e-21
[INFO] ContinuityError: 86.714 [ms]
[INFO] CorrectBoundary: 2.531 [ms]
[INFO] PISOStep: 198649 [ms]
[INFO] TimeStep: 404102 [ms]
ExecutionTime = 3371.12 s  ClockTime = 3404 s

Time = 0.00166

Courant Number mean: 0.0382481 max: 0.483675
[INFO] MatrixAssemblyU: 792.942 [ms]
DILUPBiCGStab:  Solving for Ux, Initial residual = 0.0194491, Final residual = 0.00179486, No Iterations 5
DILUPBiCGStab:  Solving for Uy, Initial residual = 0.0741162, Final residual = 0.00583268, No Iterations 5
DILUPBiCGStab:  Solving for Uz, Initial residual = 0.49272, Final residual = 0.019202, No Iterations 5
[INFO] MomentumPredictor: 5778.27 [ms]
[INFO] MatrixAssemblyPI: 871.104 [ms]
[INFO] AdjustPhi: 53.459 [ms]
[INFO] ConstrainPressure: 0.002 [ms]
[INFO] MatrixAssemblyPII: 248.756 [ms]
nonePCG:  Solving for p, Initial residual = 0.885487, Final residual = 9.90276e-05, No Iterations 2288
[INFO] SolveP: 204629 [ms]
time step continuity errors : sum local = 1.14006e-08, global = 4.63074e-22, cumulative = 9.24211e-21
[INFO] ContinuityError: 86.258 [ms]
[INFO] CorrectBoundary: 2.237 [ms]
[INFO] PISOStep: 206182 [ms]
[INFO] MatrixAssemblyPI: 844.449 [ms]
[INFO] AdjustPhi: 53.82 [ms]
[INFO] ConstrainPressure: 0.012 [ms]
[INFO] MatrixAssemblyPII: 249.425 [ms]
nonePCG:  Solving for p, Initial residual = 0.816491, Final residual = 9.75756e-05, No Iterations 2292
[INFO] SolveP: 205062 [ms]
time step continuity errors : sum local = 1.13732e-08, global = 6.26782e-22, cumulative = 9.8689e-21
[INFO] ContinuityError: 87.351 [ms]
[INFO] CorrectBoundary: 2.773 [ms]
[INFO] PISOStep: 206587 [ms]
[INFO] TimeStep: 419429 [ms]
ExecutionTime = 3786.61 s  ClockTime = 3823 s

Time = 0.001826

Courant Number mean: 0.0398559 max: 0.525169
[INFO] MatrixAssemblyU: 792.469 [ms]
DILUPBiCGStab:  Solving for Ux, Initial residual = 0.018278, Final residual = 0.0016724, No Iterations 5
DILUPBiCGStab:  Solving for Uy, Initial residual = 0.0725277, Final residual = 0.00561553, No Iterations 5
DILUPBiCGStab:  Solving for Uz, Initial residual = 0.496118, Final residual = 0.0185714, No Iterations 5
[INFO] MomentumPredictor: 5777.37 [ms]
[INFO] MatrixAssemblyPI: 876.152 [ms]
[INFO] AdjustPhi: 48.187 [ms]
[INFO] ConstrainPressure: 0.003 [ms]
[INFO] MatrixAssemblyPII: 249.464 [ms]
nonePCG:  Solving for p, Initial residual = 0.903992, Final residual = 9.96293e-05, No Iterations 2294
[INFO] SolveP: 205175 [ms]
time step continuity errors : sum local = 1.13951e-08, global = 8.70961e-22, cumulative = 1.07399e-20
[INFO] ContinuityError: 86.162 [ms]
[INFO] CorrectBoundary: 4.091 [ms]
[INFO] PISOStep: 206727 [ms]
[INFO] MatrixAssemblyPI: 845.871 [ms]
[INFO] AdjustPhi: 52.783 [ms]
[INFO] ConstrainPressure: 0.012 [ms]
[INFO] MatrixAssemblyPII: 249.226 [ms]
nonePCG:  Solving for p, Initial residual = 0.849402, Final residual = 9.76707e-05, No Iterations 2293
[INFO] SolveP: 205169 [ms]
time step continuity errors : sum local = 1.10779e-08, global = 1.47381e-21, cumulative = 1.22137e-20
[INFO] ContinuityError: 86.816 [ms]
[INFO] CorrectBoundary: 2.118 [ms]
[INFO] PISOStep: 206694 [ms]
[INFO] TimeStep: 420079 [ms]
ExecutionTime = 4202.75 s  ClockTime = 4243 s

Time = 0.001992

Courant Number mean: 0.0412763 max: 0.486776
[INFO] MatrixAssemblyU: 794.846 [ms]
DILUPBiCGStab:  Solving for Ux, Initial residual = 0.017688, Final residual = 0.00161787, No Iterations 5
DILUPBiCGStab:  Solving for Uy, Initial residual = 0.065993, Final residual = 0.00494004, No Iterations 5
DILUPBiCGStab:  Solving for Uz, Initial residual = 0.481942, Final residual = 0.0180557, No Iterations 5
[INFO] MomentumPredictor: 5775.65 [ms]
[INFO] MatrixAssemblyPI: 871.951 [ms]
[INFO] AdjustPhi: 53.508 [ms]
[INFO] ConstrainPressure: 0.002 [ms]
[INFO] MatrixAssemblyPII: 249.098 [ms]
nonePCG:  Solving for p, Initial residual = 0.887, Final residual = 9.99819e-05, No Iterations 2295
[INFO] SolveP: 205246 [ms]
time step continuity errors : sum local = 1.19e-08, global = 1.1563e-21, cumulative = 1.337e-20
[INFO] ContinuityError: 86.725 [ms]
[INFO] CorrectBoundary: 2.578 [ms]
[INFO] PISOStep: 206800 [ms]
[INFO] MatrixAssemblyPI: 846.619 [ms]
[INFO] AdjustPhi: 50.53 [ms]
[INFO] ConstrainPressure: 0.014 [ms]
[INFO] MatrixAssemblyPII: 248.125 [ms]
nonePCG:  Solving for p, Initial residual = 0.816541, Final residual = 9.8532e-05, No Iterations 2293
[INFO] SolveP: 205161 [ms]
time step continuity errors : sum local = 1.18574e-08, global = 2.25312e-22, cumulative = 1.35953e-20
[INFO] ContinuityError: 86.095 [ms]
[INFO] CorrectBoundary: 3.614 [ms]
[INFO] PISOStep: 206685 [ms]
[INFO] TimeStep: 420144 [ms]
ExecutionTime = 4619.01 s  ClockTime = 4663 s

Time = 0.002158

Courant Number mean: 0.0426634 max: 0.532773
[INFO] MatrixAssemblyU: 796.632 [ms]
DILUPBiCGStab:  Solving for Ux, Initial residual = 0.0167492, Final residual = 0.00150129, No Iterations 5
DILUPBiCGStab:  Solving for Uy, Initial residual = 0.0660603, Final residual = 0.00484793, No Iterations 5
DILUPBiCGStab:  Solving for Uz, Initial residual = 0.489409, Final residual = 0.0175894, No Iterations 5
[INFO] MomentumPredictor: 5774.54 [ms]
[INFO] MatrixAssemblyPI: 873.606 [ms]
[INFO] AdjustPhi: 50.3 [ms]
[INFO] ConstrainPressure: 0.003 [ms]
[INFO] MatrixAssemblyPII: 249.211 [ms]
nonePCG:  Solving for p, Initial residual = 0.90468, Final residual = 9.78175e-05, No Iterations 2294
[INFO] SolveP: 205205 [ms]
time step continuity errors : sum local = 1.1637e-08, global = -1.62368e-21, cumulative = 1.19716e-20
[INFO] ContinuityError: 86.1 [ms]
[INFO] CorrectBoundary: 1.983 [ms]
[INFO] PISOStep: 206756 [ms]
[INFO] MatrixAssemblyPI: 847.345 [ms]
[INFO] AdjustPhi: 51.752 [ms]
[INFO] ConstrainPressure: 0.017 [ms]
[INFO] MatrixAssemblyPII: 249.12 [ms]
nonePCG:  Solving for p, Initial residual = 0.846573, Final residual = 9.76581e-05, No Iterations 2292
[INFO] SolveP: 205182 [ms]
time step continuity errors : sum local = 1.15375e-08, global = 1.35261e-22, cumulative = 1.21069e-20
[INFO] ContinuityError: 86.218 [ms]
[INFO] CorrectBoundary: 3.83 [ms]
[INFO] PISOStep: 206708 [ms]
[INFO] TimeStep: 420123 [ms]
ExecutionTime = 5035.22 s  ClockTime = 5083 s

Time = 0.002324

Courant Number mean: 0.0438967 max: 0.489838
[INFO] MatrixAssemblyU: 793.885 [ms]
DILUPBiCGStab:  Solving for Ux, Initial residual = 0.0165125, Final residual = 0.00147549, No Iterations 5
DILUPBiCGStab:  Solving for Uy, Initial residual = 0.0608514, Final residual = 0.00430515, No Iterations 5
DILUPBiCGStab:  Solving for Uz, Initial residual = 0.480056, Final residual = 0.0172332, No Iterations 5
[INFO] MomentumPredictor: 5783.2 [ms]
[INFO] MatrixAssemblyPI: 877.049 [ms]
[INFO] AdjustPhi: 47.297 [ms]
[INFO] ConstrainPressure: 0.002 [ms]
[INFO] MatrixAssemblyPII: 249.318 [ms]
nonePCG:  Solving for p, Initial residual = 0.889352, Final residual = 9.77301e-05, No Iterations 2294
[INFO] SolveP: 205148 [ms]
time step continuity errors : sum local = 1.21113e-08, global = 1.13645e-21, cumulative = 1.32433e-20
[INFO] ContinuityError: 87.229 [ms]
[INFO] CorrectBoundary: 4.112 [ms]
[INFO] PISOStep: 206700 [ms]
[INFO] MatrixAssemblyPI: 841.955 [ms]
[INFO] AdjustPhi: 56.219 [ms]
[INFO] ConstrainPressure: 0.014 [ms]
[INFO] MatrixAssemblyPII: 248.694 [ms]
nonePCG:  Solving for p, Initial residual = 0.817741, Final residual = 9.88511e-05, No Iterations 2291
[INFO] SolveP: 205014 [ms]
time step continuity errors : sum local = 1.23687e-08, global = -2.63223e-22, cumulative = 1.29801e-20
[INFO] ContinuityError: 86.262 [ms]
[INFO] CorrectBoundary: 1.979 [ms]
[INFO] PISOStep: 206539 [ms]
[INFO] TimeStep: 419905 [ms]
ExecutionTime = 5451.23 s  ClockTime = 5503 s

Time = 0.00249

Courant Number mean: 0.0451233 max: 0.54141
[INFO] MatrixAssemblyU: 794.893 [ms]
DILUPBiCGStab:  Solving for Ux, Initial residual = 0.0157582, Final residual = 0.00136408, No Iterations 5
DILUPBiCGStab:  Solving for Uy, Initial residual = 0.0617311, Final residual = 0.00428887, No Iterations 5
DILUPBiCGStab:  Solving for Uz, Initial residual = 0.489445, Final residual = 0.0169813, No Iterations 5
[INFO] MomentumPredictor: 5777.89 [ms]
[INFO] MatrixAssemblyPI: 881.729 [ms]
[INFO] AdjustPhi: 42.648 [ms]
[INFO] ConstrainPressure: 0.003 [ms]
[INFO] MatrixAssemblyPII: 249.085 [ms]
nonePCG:  Solving for p, Initial residual = 0.905514, Final residual = 9.80395e-05, No Iterations 2293
[INFO] SolveP: 205057 [ms]
time step continuity errors : sum local = 1.21863e-08, global = 7.896e-22, cumulative = 1.37697e-20
[INFO] ContinuityError: 86.559 [ms]
[INFO] CorrectBoundary: 3.855 [ms]
[INFO] PISOStep: 206609 [ms]
[INFO] MatrixAssemblyPI: 839.391 [ms]
[INFO] AdjustPhi: 59.419 [ms]
[INFO] ConstrainPressure: 0.011 [ms]
[INFO] MatrixAssemblyPII: 246.394 [ms]
nonePCG:  Solving for p, Initial residual = 0.844413, Final residual = 9.74545e-05, No Iterations 2291
[INFO] SolveP: 205069 [ms]
time step continuity errors : sum local = 1.20457e-08, global = -7.19794e-22, cumulative = 1.30499e-20
[INFO] ContinuityError: 86.437 [ms]
[INFO] CorrectBoundary: 4.507 [ms]
[INFO] PISOStep: 206596 [ms]
[INFO] TimeStep: 419866 [ms]
ExecutionTime = 5867.2 s  ClockTime = 5923 s

Time = 0.002656

Courant Number mean: 0.0462141 max: 0.49295
[INFO] MatrixAssemblyU: 793.604 [ms]
DILUPBiCGStab:  Solving for Ux, Initial residual = 0.0157343, Final residual = 0.0013584, No Iterations 5
DILUPBiCGStab:  Solving for Uy, Initial residual = 0.057628, Final residual = 0.00384027, No Iterations 5
DILUPBiCGStab:  Solving for Uz, Initial residual = 0.483157, Final residual = 0.0167059, No Iterations 5
[INFO] MomentumPredictor: 5778.97 [ms]
[INFO] MatrixAssemblyPI: 877.964 [ms]
[INFO] AdjustPhi: 46.088 [ms]
[INFO] ConstrainPressure: 0.002 [ms]
[INFO] MatrixAssemblyPII: 249.102 [ms]
nonePCG:  Solving for p, Initial residual = 0.892189, Final residual = 9.99609e-05, No Iterations 2225
[INFO] SolveP: 199037 [ms]
time step continuity errors : sum local = 1.29286e-08, global = 1.85681e-21, cumulative = 1.49067e-20
[INFO] ContinuityError: 85.758 [ms]
[INFO] CorrectBoundary: 2.895 [ms]
[INFO] PISOStep: 200588 [ms]
[INFO] MatrixAssemblyPI: 849.369 [ms]
[INFO] AdjustPhi: 49.255 [ms]
[INFO] ConstrainPressure: 0.013 [ms]
[INFO] MatrixAssemblyPII: 249.296 [ms]
nonePCG:  Solving for p, Initial residual = 0.819659, Final residual = 9.85798e-05, No Iterations 2288
[INFO] SolveP: 204789 [ms]
time step continuity errors : sum local = 1.28566e-08, global = 1.5585e-21, cumulative = 1.64652e-20
[INFO] ContinuityError: 86.724 [ms]
[INFO] CorrectBoundary: 2.469 [ms]
[INFO] PISOStep: 206314 [ms]
[INFO] TimeStep: 413563 [ms]
ExecutionTime = 6276.8 s  ClockTime = 6337 s

Time = 0.002822

Courant Number mean: 0.0473173 max: 0.551502
[INFO] MatrixAssemblyU: 793.17 [ms]
DILUPBiCGStab:  Solving for Ux, Initial residual = 0.0151542, Final residual = 0.00125486, No Iterations 5
DILUPBiCGStab:  Solving for Uy, Initial residual = 0.0589364, Final residual = 0.00387066, No Iterations 5
DILUPBiCGStab:  Solving for Uz, Initial residual = 0.49343, Final residual = 0.0165721, No Iterations 5
[INFO] MomentumPredictor: 5777.15 [ms]
[INFO] MatrixAssemblyPI: 875.083 [ms]
[INFO] AdjustPhi: 49.445 [ms]
[INFO] ConstrainPressure: 0.004 [ms]
[INFO] MatrixAssemblyPII: 249.156 [ms]
nonePCG:  Solving for p, Initial residual = 0.906747, Final residual = 9.92508e-05, No Iterations 2293
[INFO] SolveP: 205098 [ms]
time step continuity errors : sum local = 1.29259e-08, global = -1.41689e-22, cumulative = 1.63235e-20
[INFO] ContinuityError: 86.154 [ms]
[INFO] CorrectBoundary: 1.947 [ms]
[INFO] PISOStep: 206650 [ms]
[INFO] MatrixAssemblyPI: 848.007 [ms]
[INFO] AdjustPhi: 50.559 [ms]
[INFO] ConstrainPressure: 0.013 [ms]
[INFO] MatrixAssemblyPII: 248.967 [ms]
nonePCG:  Solving for p, Initial residual = 0.842679, Final residual = 9.93713e-05, No Iterations 2291
[INFO] SolveP: 205012 [ms]
time step continuity errors : sum local = 1.28847e-08, global = -2.81099e-22, cumulative = 1.60424e-20
[INFO] ContinuityError: 86.788 [ms]
[INFO] CorrectBoundary: 4.667 [ms]
[INFO] PISOStep: 206538 [ms]
[INFO] TimeStep: 419846 [ms]
ExecutionTime = 6692.74 s  ClockTime = 6757 s

Time = 0.002988

Courant Number mean: 0.0482956 max: 0.496276
[INFO] MatrixAssemblyU: 790.689 [ms]
DILUPBiCGStab:  Solving for Ux, Initial residual = 0.015262, Final residual = 0.00126116, No Iterations 5
DILUPBiCGStab:  Solving for Uy, Initial residual = 0.0557894, Final residual = 0.00349388, No Iterations 5
DILUPBiCGStab:  Solving for Uz, Initial residual = 0.489519, Final residual = 0.0163791, No Iterations 5
[INFO] MomentumPredictor: 5780.51 [ms]
[INFO] MatrixAssemblyPI: 872.676 [ms]
[INFO] AdjustPhi: 51.767 [ms]
[INFO] ConstrainPressure: 0.016 [ms]
[INFO] MatrixAssemblyPII: 249.072 [ms]
nonePCG:  Solving for p, Initial residual = 0.89658, Final residual = 9.76542e-05, No Iterations 2295
[INFO] SolveP: 205272 [ms]
time step continuity errors : sum local = 1.32246e-08, global = 2.97572e-22, cumulative = 1.634e-20
[INFO] ContinuityError: 86.471 [ms]
[INFO] CorrectBoundary: 2.367 [ms]
[INFO] PISOStep: 206824 [ms]
[INFO] MatrixAssemblyPI: 844.265 [ms]
[INFO] AdjustPhi: 54.071 [ms]
[INFO] ConstrainPressure: 0.013 [ms]
[INFO] MatrixAssemblyPII: 249.313 [ms]
nonePCG:  Solving for p, Initial residual = 0.822729, Final residual = 9.86624e-05, No Iterations 2292
[INFO] SolveP: 205184 [ms]
time step continuity errors : sum local = 1.34585e-08, global = -6.46847e-22, cumulative = 1.56931e-20
[INFO] ContinuityError: 86.426 [ms]
[INFO] CorrectBoundary: 2.94 [ms]
[INFO] PISOStep: 206710 [ms]
[INFO] TimeStep: 420193 [ms]
ExecutionTime = 7108.65 s  ClockTime = 7177 s

Time = 0.003154

Courant Number mean: 0.049302 max: 0.563027
[INFO] MatrixAssemblyU: 792.475 [ms]
DILUPBiCGStab:  Solving for Ux, Initial residual = 0.0148562, Final residual = 0.00116843, No Iterations 5
DILUPBiCGStab:  Solving for Uy, Initial residual = 0.0573613, Final residual = 0.0035535, No Iterations 5
DILUPBiCGStab:  Solving for Uz, Initial residual = 0.500543, Final residual = 0.0163803, No Iterations 5
[INFO] MomentumPredictor: 5780.13 [ms]
[INFO] MatrixAssemblyPI: 880.742 [ms]
[INFO] AdjustPhi: 43.931 [ms]
[INFO] ConstrainPressure: 0.002 [ms]
[INFO] MatrixAssemblyPII: 249.07 [ms]
nonePCG:  Solving for p, Initial residual = 0.909348, Final residual = 9.80522e-05, No Iterations 2294
[INFO] SolveP: 212020 [ms]
time step continuity errors : sum local = 1.3446e-08, global = 1.45513e-21, cumulative = 1.71483e-20
[INFO] ContinuityError: 101.704 [ms]
[INFO] CorrectBoundary: 15.417 [ms]
[INFO] PISOStep: 213598 [ms]
[INFO] MatrixAssemblyPI: 837.041 [ms]
[INFO] AdjustPhi: 122.381 [ms]
[INFO] ConstrainPressure: 0.015 [ms]
[INFO] MatrixAssemblyPII: 262.458 [ms]
nonePCG:  Solving for p, Initial residual = 0.842354, Final residual = 9.72417e-05, No Iterations 2292
[INFO] SolveP: 220515 [ms]
time step continuity errors : sum local = 1.32904e-08, global = 1.36934e-21, cumulative = 1.85176e-20
[INFO] ContinuityError: 96.861 [ms]
[INFO] CorrectBoundary: 7.193 [ms]
[INFO] PISOStep: 222148 [ms]
[INFO] TimeStep: 442407 [ms]
ExecutionTime = 7546.71 s  ClockTime = 7619 s

Time = 0.00332

Courant Number mean: 0.0501879 max: 0.499873
[INFO] MatrixAssemblyU: 813.831 [ms]
DILUPBiCGStab:  Solving for Ux, Initial residual = 0.0150641, Final residual = 0.00118079, No Iterations 5
DILUPBiCGStab:  Solving for Uy, Initial residual = 0.0549991, Final residual = 0.00323676, No Iterations 5
DILUPBiCGStab:  Solving for Uz, Initial residual = 0.498453, Final residual = 0.0162349, No Iterations 5
[INFO] MomentumPredictor: 6211.21 [ms]
[INFO] MatrixAssemblyPI: 866.096 [ms]
[INFO] AdjustPhi: 113.859 [ms]
[INFO] ConstrainPressure: 0.003 [ms]
[INFO] MatrixAssemblyPII: 257.215 [ms]
nonePCG:  Solving for p, Initial residual = 0.902024, Final residual = 9.9798e-05, No Iterations 2295
[INFO] SolveP: 220113 [ms]
time step continuity errors : sum local = 1.42175e-08, global = -6.42105e-23, cumulative = 1.84534e-20
[INFO] ContinuityError: 101.146 [ms]
[INFO] CorrectBoundary: 16.719 [ms]
[INFO] PISOStep: 221767 [ms]
[INFO] MatrixAssemblyPI: 817.707 [ms]
[INFO] AdjustPhi: 143.775 [ms]
[INFO] ConstrainPressure: 0.015 [ms]
[INFO] MatrixAssemblyPII: 249.01 [ms]
nonePCG:  Solving for p, Initial residual = 0.82695, Final residual = 9.99383e-05, No Iterations 2292
[INFO] SolveP: 218580 [ms]
time step continuity errors : sum local = 1.43281e-08, global = 3.08725e-22, cumulative = 1.87621e-20
[INFO] ContinuityError: 87.056 [ms]
[INFO] CorrectBoundary: 2.235 [ms]
[INFO] PISOStep: 220180 [ms]
[INFO] TimeStep: 449066 [ms]
ExecutionTime = 7991.51 s  ClockTime = 8068 s

End

Finalising parallel run
