/*---------------------------------------------------------------------------*\
| =========                 |                                                 |
| \\      /  F ield         | OpenFOAM: The Open Source CFD Toolbox           |
|  \\    /   O peration     | Version:  2312                                  |
|   \\  /    A nd           | Website:  www.openfoam.com                      |
|    \\/     M anipulation  |                                                 |
\*---------------------------------------------------------------------------*/
Build  : a46b310f-20240104 OPENFOAM=2312 version=v2312
Arch   : "LSB;label=32;scalar=64"
Exec   : icoFoam -parallel -case /hppfs/scratch/0B/di35yan/lidDriven3D/workspace/408e98ccb936f8fbeb78f5060fb51ec5/case
Date   : Feb 17 2024
Time   : 07:59:21
Host   : i20r02c02s06
PID    : 78532
I/O    : uncollated
Case   : /hppfs/scratch/0B/di35yan/lidDriven3D/workspace/408e98ccb936f8fbeb78f5060fb51ec5/case
nProcs : 112
Hosts  :
(
    (i20r02c02s06 112)
)
Pstream initialized with:
    floatTransfer      : false
    nProcsSimpleSum    : 0
    nonBlockingExchange: 0 (tuning: 0)
    exchange algorithm : 0
    commsType          : nonBlocking
    polling iterations : 0
trapFpe: Floating point exception trapping enabled (FOAM_SIGFPE).
fileModificationChecking : Monitoring run-time modified files using timeStampMaster (fileModificationSkew 5, maxFileModificationPolls 20)
allowSystemOperations : Allowing user-supplied system call operations

// * * * * * * * * * * * * * * * * * * * * * * * * * * * * * * * * * * * * * //
Create time

--> FOAM Warning : 
    From void* Foam::dlLibraryTable::openLibrary(const Foam::fileName&, bool)
    in file db/dynamicLibrary/dlLibraryTable/dlLibraryTable.C at line 188
    Could not load "libpetscFoam.so"
libpetscFoam.so: cannot open shared object file: No such file or directory
Create mesh for time = 0


PISO: Operating solver in PISO mode

Reading transportProperties

Reading field p

Reading field U

Reading/calculating face flux field phi


Starting time loop

Time = 0.000125

Courant Number mean: 8.02505e-18 max: 4.85723e-14
DILUPBiCGStab:  Solving for Ux, Initial residual = 1, Final residual = 0.0215184, No Iterations 5
DILUPBiCGStab:  Solving for Uy:  solution singularity
DILUPBiCGStab:  Solving for Uz:  solution singularity
[5] [10] [12] [25] [41] [75] [102] [103] [107] [0] [1] [2] [3] [4] [6] [7] [8] [9] 
[10] 
[10] --> FOAM FATAL IO ERROR: (openfoam-2312)
[10] Entry 'smoother' not found in dictionary 
[10] 
[10] 
[10]     From const Foam::entry& Foam::dictionary::lookupEntry(const Foam::word&, Foam::keyType::option) const
[10]     in file db/dictionary/dictionary.C at line 363.
[10] 
FOAM parallel run exiting
[10] 
[11] 
[12] 
[12] --> FOAM FATAL IO ERROR: (openfoam-2312)
[12] Entry 'smoother' not found in dictionary 
[12] 
[12] 
[12]     From const Foam::entry& Foam::dictionary::lookupEntry(const Foam::word&, Foam::keyType::option) const
[12]     in file db/dictionary/dictionary.C at line 363.
[12] 
FOAM parallel run exiting
[12] 
[13] [14] 
[14] 
[14] --> FOAM FATAL IO ERROR: (openfoam-2312)
[14] Entry 'smoother' not found in dictionary 
[14] 
[14] 
[14]     From const Foam::entry& Foam::dictionary::lookupEntry(const Foam::word&, Foam::keyType::option) const
[14]     in file db/dictionary/dictionary.C at line 363.
[14] 
FOAM parallel run exiting
[14] 
[15] [16] [17] [18] [19] [20] [21] [22] 
[22] 
[22] --> FOAM FATAL IO ERROR: (openfoam-2312)
[22] Entry 'smoother' not found in dictionary 
[23] [24] 
[25] 
[25] --> FOAM FATAL IO ERROR: (openfoam-2312)
[25] Entry 'smoother' not found in dictionary 
[25] 
[25] 
[25]     From const Foam::entry& Foam::dictionary::lookupEntry(const Foam::word&, Foam::keyType::option) const
[25]     in file db/dictionary/dictionary.C at line 363.
[25] 
FOAM parallel run exiting
[25] 
[26] 
[26] 
[26] --> FOAM FATAL IO ERROR: (openfoam-2312)
[26] Entry 'smoother' not found in dictionary 
[26] 
[26] 
[26]     From const Foam::entry& Foam::dictionary::lookupEntry(const Foam::word&, Foam::keyType::option) const
[26]     in file db/dictionary/dictionary.C at line 363.
[26] 
FOAM parallel run exiting
[26] 
[27] [28] [29] [30] [31] [32] [33] [34] [35] [36] [37] [38] [39] [40] 
[41] 
[41] --> FOAM FATAL IO ERROR: (openfoam-2312)
[41] Entry 'smoother' not found in dictionary 
[41] 
[41] 
[41]     From const Foam::entry& Foam::dictionary::lookupEntry(const Foam::word&, Foam::keyType::option) const
[41]     in file db/dictionary/dictionary.C at line 363.
[41] 
FOAM parallel run exiting
[41] 
[42] [43] [44] [45] [46] [47] 
[47] 
[47] --> FOAM FATAL IO ERROR: (openfoam-2312)
[47] Entry 'smoother' not found in dictionary 
[47] 
[47] 
[47]     From const Foam::entry& Foam::dictionary::lookupEntry(const Foam::word&, Foam::keyType::option) const
[47]     in file db/dictionary/dictionary.C at line 363.
[47] 
FOAM parallel run exiting
[47] 
[48] 
[48] 
[48] --> FOAM FATAL IO ERROR: (openfoam-[49] 
[49] 
[49] --> FOAM FATAL IO ERROR: (openfoam-2312)
[49] Entry 'smoother' not found in dictionary 
[49] 
[49] 
[49]     From const Foam::entry& Foam::dictionary::lookupEntry(const Foam::word&, Foam::keyType::option) const
[49]     in file db/dictionary/dictionary.C at line 363.
[49] 
FOAM parallel run exiting
[49] 
[50] [51] [52] [53] 
[53] 
[53] --> FOAM FATAL IO ERROR: (openfoam-2312)
[53] Entry 'smoother' not found in dictionary 
[53] 
[53] 
[53]     From const Foam::entry& Foam::dictionary::lookupEntry(const Foam::word&, Foam::keyType::option) const
[53]     in file db/dictionary/dictionary.C at line 363.
[53] 
FOAM parallel run exiting
[53] 
[54] 
[54] 
[54] [55] [56] [57] [58] [59] [60] [61] [62] 
[62] 
[62] --> FOAM FATAL IO ERROR: (openfoam-2312)
[62] Entry 'smoother' not found in dictionary 
[62] 
[62] 
[62]     From const Foam::entry& Foam::dictionary::lookupEntry(const Foam::word&, Foam::keyType::option) const
[62]     in file db/dictionary/dictionary.C at line 363.
[62] 
FOAM parallel run exiting
[62] 
[63] 
[63] 
[63] --> FOAM FATAL IO ERROR: (openfoam-2312)
[63] Entry 'smoother' not found in dictionary 
[63] 
[63] 
[63]     From const Foam::entry& Foam::dictionary::lookupEntry(const Foam::word&, Foam::keyType::option) const
[63]     in file db/dictionary/dictionary.C at line 363.
[63] 
FOAM parallel run exiting
[63] 
[64] [65] [66] [67] [68] [69] [70] 
[70] 
[70] --> FOAM FATAL IO ERROR: (openfoam-2312)
[70] Entry 'smoother' not found in dictionary 
[70] 
[70] 
[70]     From const Foam::entry& Foam::dictionary::lookupEntry(const Foam::word&, Foam::keyType::option) const
[70]     in file db/dictionary/dictionary.C at line 363.
[70] 
FOAM parallel run exiting
[70] 
[71] 
[71] 
[71] [72] 
[72] 
[72] --> FOAM FATAL IO ERROR: (openfoam-2312)
[72] Entry 'smoother' not found in dictionary 
[72] 
[72] 
[72]     From const Foam::entry& Foam::dictionary::lookupEntry(const Foam::word&, Foam::keyType::option) const
[72]     in file db/dictionary/dictionary.C at line 363.
[72] 
FOAM parallel run exiting
[72] 
[73] [74] [76] [77] [78] 
[78] 
[78] --> FOAM FATAL IO ERROR: (openfoam-2312)
[78] Entry 'smoother' not found in dictionary 
[78] 
[78] 
[78]     From const Foam::entry& Foam::dictionary::lookupEntry(const Foam::word&, Foam::keyType::option) const
[78]     in file db/dictionary/dictionary.C at line 363.
[78] 
FOAM parallel run exiting
[78] 
[79] [80] [81] 
[81] 
[81] --> FOAM FATAL IO ERROR: (openfoam-2312)
[81] Entry 'smoother' not found in dictionary 
[81] 
[81] 
[81]     From const Foam::entry& Foam::dictionary::lookupEntry(const Foam::word&, Foam::keyType::option) const
[81]     in file db/dictionary/dictionary.C at line 363.
[81] 
FOAM parallel run exiting
[81] 
[82] [83] [84] [85] [86] 
[86] 
[86] --> FOAM FATAL IO ERROR: (openfoam-2312)
[86] Entry 'smoother' not found in dictionary 
[86] 
[86] 
[86]     From const Foam::entry& Foam::dictionary::lookupEntry(const Foam::word&, Foam::keyType::option) const
[86]     in file db/dictionary/dictionary.C at line 363.
[86] 
FOAM parallel run exiting
[86] 
[87] [88] [89] 
[89] 
[89] --> FOAM FATAL IO ERROR: (openfoam-2312)
[89] Entry 'smoother' not found in dictionary 
[89] 
[89] 
[89]     From const Foam::entry& Foam::dictionary::lookupEntry(const Foam::word&, Foam::keyType::option) const
[89]     in file db/dictionary/dictionary.C at line 363.
[89] 
FOAM parallel run exiting
[89] 
[90] [91] [92] 
[92] 
[92] --> FOAM FATAL IO ERROR: (openfoam-2312)
[92] Entry 'smoother' not found in dictionary 
[92] 
[92] 
[92]     From const Foam::entry& Foam::dictionary::lookupEntry(const Foam::word&, Foam::keyType::option) const
[92]     in file db/dictionary/dictionary.C at line 363.
[92] 
FOAM parallel run exiting
[92] 
[93] 
[93] 
[93] --> FOAM FATAL IO ERROR: (openfoam-2312)
[93] Entry 'smoother' not found in dictionary 
[93] 
[93] 
[93]     From const Foam::entry& Foam::dictionary::lookupEntry(const Foam::word&, Foam::keyType::option) const
[93]     in file db/dictionary/dictionary.C at line 363.
[93] 
FOAM parallel run exiting
[93] 
[94] [95] [96] 
[96] 
[96] --> FOAM FATAL IO ERROR: (openfoam-2312)
[96] Entry 'smoother' not found in dictionary 
[96] 
[96] 
[96]     From const Foam::entry& Foam::dictionary::lookupEntry(const Foam::word&, Foam::keyType::option) const
[96]     in file db/dictionary/dictionary.C at line 363.
[96] 
FOAM parallel run exiting
[96] 
[97] 
[97] 
[97] --> FOAM FATAL IO ERROR: (openfoam-2312)
[97] Entry 'smoother' not found in dictionary 
[97] 
[97] 
[97]     From const Foam::entry& Foam::dictionary::lookupEntry(const Foam::word&, Foam::keyType::option) const
[97]     in file db/dictionary/dictionary.C at line 363.
[97] 
FOAM parallel run exiting
[97] 
[98] [99] 
[99] 
[99] --> FOAM FATAL IO ERROR: (openfoam-2312)
[99] Entry 'smoother' not found in dictionary 
[99] 
[99] 
[99]     From const Foam::entry& Foam::dictionary::lookupEntry(const Foam::word&, Foam::keyType::option) const
[99]     in file db/dictionary/dictionary.C at line 363.
[99] 
FOAM parallel run exiting
[99] 
[100] 
[100] 
[100] --> FOAM FATAL IO ERROR: (openfoam-2312)
[100] Entry 'smoother' not found in dictionary 
[100] 
[100] 
[100]     From const Foam::entry& Foam::dictionary::lookupEntry(const Foam::word&, Foam::keyType::option) const
[100]     in file db/dictionary/dictionary.C at line 363.
[100] 
FOAM parallel run exiting
[100] 
[101] [104] [105] [106] 
[107] 
[107] --> FOAM FATAL IO ERROR: (openfoam-2312)
[107] Entry 'smoother' not found in dictionary 
[107] 
[107] 
[107]     From const Foam::entry& Foam::dictionary::lookupEntry(const Foam::word&, Foam::keyType::option) const
[107]     in file db/dictionary/dictionary.C at line 363.
[107] 
FOAM parallel run exiting
[107] 
[108] [109] 
[109] 
[109] --> FOAM FATAL IO ERROR: (openfoam-2312)
[109] Entry 'smoother' not found in dictionary 
[109] 
[109] 
[109]     From const Foam::entry& Foam::dictionary::lookupEntry(const Foam::word&, Foam::keyType::option) const
[109]     in file db/dictionary/dictionary.C at line 363.
[109] 
FOAM parallel run exiting
[109] 
[110] 
[110] 
[110] --> FOAM FATAL IO ERROR: (openfoam-2312)
[110] Entry 'smoother' not found in dictionary 
[110] 
[110] 
[110]     From const Foam::entry& Foam::dictionary::lookupEntry(const Foam::word&, Foam::keyType::option) const
[110]     in file db/dictionary/dictionary.C at line 363.
[110] 
FOAM parallel run exiting
[110] 
[111] 
[0] 
[0] --> FOAM FATAL IO ERROR: (openfoam-2312)
[0] Entry 'smoother' not found in dictionary 
[0] 
[0] 
[0]     From const Foam::entry& Foam::dictionary::lookupEntry(const Foam::word&, Foam::keyType::option) const
[0]     in file db/dictionary/dictionary.C at line 363.
[0] 
FOAM parallel run exiting
[0] 

[5] 
[5] --> FOAM FATAL IO ERROR: (openfoam-2312)
[5] Entry 'smoother' not found in dictionary 
[5] 
[5] 
[5]     From const Foam::entry& Foam::dictionary::lookupEntry(const Foam::word&, Foam::keyType::option) const
[5]     in file db/dictionary/dictionary.C at line 363.
[5] 
FOAM parallel run exiting
[5] 

[8] 
[8] --> FOAM FATAL IO ERROR: (openfoam-2312)
[8] Entry 'smoother' not found in dictionary 
[8] 
[8] 
[8]     From const Foam::entry& Foam::dictionary::lookupEntry(const Foam::word&, Foam::keyType::option) const
[8]     in file db/dictionary/dictionary.C at line 363.
[8] 
FOAM parallel run exiting
[8] 

[11] 
[11] --> FOAM FATAL IO ERROR: (openfoam-2312)
[11] Entry 'smoother' not found in dictionary 
[11] 
[11] 
[11]     From const Foam::entry& Foam::dictionary::lookupEntry(const Foam::word&, Foam::keyType::option) const
[11]     in file db/dictionary/dictionary.C at line 363.
[11] 
FOAM parallel run exiting
[11] 

[13] 
[13] --> FOAM FATAL IO ERROR: (openfoam-2312)
[13] Entry 'smoother' not found in dictionary 
[13] 
[13] 
[13]     From const Foam::entry& Foam::dictionary::lookupEntry(const Foam::word&, Foam::keyType::option) const
[13]     in file db/dictionary/dictionary.C at line 363.
[13] 
FOAM parallel run exiting
[13] 

[15] 
[15] --> FOAM FATAL IO ERROR: (openfoam-2312)
[15] Entry 'smoother' not found in dictionary 
[15] 
[15] 
[15]     From const Foam::entry& Foam::dictionary::lookupEntry(const Foam::word&, Foam::keyType::option) const
[15]     in file db/dictionary/dictionary.C at line 363.
[15] 
FOAM parallel run exiting
[15] 

[17] 
[17] --> FOAM FATAL IO ERROR: (openfoam-2312)
[17] Entry 'smoother' not found in dictionary 
[17] 
[17] 
[17]     From const Foam::entry& Foam::dictionary::lookupEntry(const Foam::word&, Foam::keyType::option) const
[17]     in file db/dictionary/dictionary.C at line 363.
[17] 
FOAM parallel run exiting
[17] 

[18] 
[18] --> FOAM FATAL IO ERROR: (openfoam-2312)
[18] Entry 'smoother' not found in dictionary 
[18] 
[18] 
[18]     From const Foam::entry& Foam::dictionary::lookupEntry(const Foam::word&, Foam::keyType::option) const
[18]     in file db/dictionary/dictionary.C at line 363.
[18] 
FOAM parallel run exiting
[18] 

[20] 
[20] --> FOAM FATAL IO ERROR: (openfoam-2312)
[20] Entry 'smoother' not found in dictionary 
[20] 
[20] 
[20]     From const Foam::entry& Foam::dictionary::lookupEntry(const Foam::word&, Foam::keyType::option) const
[20]     in file db/dictionary/dictionary.C at line 363.
[20] 
FOAM parallel run exiting
[20] 

[21] 
[21] --> FOAM FATAL IO ERROR: (openfoam-2312)
[21] Entry 'smoother' not found in dictionary 
[21] 
[21] 
[21]     From const Foam::entry& Foam::dictionary::lookupEntry(const Foam::word&, Foam::keyType::option) const
[21]     in file db/dictionary/dictionary.C at line 363.
[21] 
FOAM parallel run exiting
[21] 
[22] 
[22] 
[22]     From const Foam::entry& Foam::dictionary::lookupEntry(const Foam::word&, Foam::keyType::option) const
[22]     in file db/dictionary/dictionary.C at line 363.
[22] 
FOAM parallel run exiting
[22] 

[24] 
[24] --> FOAM FATAL IO ERROR: (openfoam-2312)
[24] Entry 'smoother' not found in dictionary 
[24] 
[24] 
[24]     From const Foam::entry& Foam::dictionary::lookupEntry(const Foam::word&, Foam::keyType::option) const
[24]     in file db/dictionary/dictionary.C at line 363.
[24] 
FOAM parallel run exiting
[24] 

[27] 
[27] --> FOAM FATAL IO ERROR: (openfoam-2312)
[27] Entry 'smoother' not found in dictionary 
[27] 
[27] 
[27]     From const Foam::entry& Foam::dictionary::lookupEntry(const Foam::word&, Foam::keyType::option) const
[27]     in file db/dictionary/dictionary.C at line 363.
[27] 
FOAM parallel run exiting
[27] 

[31] 
[31] --> FOAM FATAL IO ERROR: (openfoam-2312)
[31] Entry 'smoother' not found in dictionary 
[31] 
[31] 
[31]     From const Foam::entry& Foam::dictionary::lookupEntry(const Foam::word&, Foam::keyType::option) const
[31]     in file db/dictionary/dictionary.C at line 363.
[31] 
FOAM parallel run exiting
[31] 

[33] 
[33] --> FOAM FATAL IO ERROR: (openfoam-2312)
[33] Entry 'smoother' not found in dictionary 
[33] 
[33] 
[33]     From const Foam::entry& Foam::dictionary::lookupEntry(const Foam::word&, Foam::keyType::option) const
[33]     in file db/dictionary/dictionary.C at line 363.
[33] 
FOAM parallel run exiting
[33] 

[34] 
[34] --> FOAM FATAL IO ERROR: (openfoam-2312)
[34] Entry 'smoother' not found in dictionary 
[34] 
[34] 
[34]     From const Foam::entry& Foam::dictionary::lookupEntry(const Foam::word&, Foam::keyType::option) const
[34]     in file db/dictionary/dictionary.C at line 363.
[34] 
FOAM parallel run exiting
[34] 

[36] 
[36] --> FOAM FATAL IO ERROR: (openfoam-2312)
[36] Entry 'smoother' not found in dictionary 
[36] 
[36] 
[36]     From const Foam::entry& Foam::dictionary::lookupEntry(const Foam::word&, Foam::keyType::option) const
[36]     in file db/dictionary/dictionary.C at line 363.
[36] 
FOAM parallel run exiting
[36] 

[37] 
[37] --> FOAM FATAL IO ERROR: (openfoam-2312)
[37] Entry 'smoother' not found in dictionary 
[37] 
[37] 
[37]     From const Foam::entry& Foam::dictionary::lookupEntry(const Foam::word&, Foam::keyType::option) const
[37]     in file db/dictionary/dictionary.C at line 363.
[37] 
FOAM parallel run exiting
[37] 

[40] 
[40] --> FOAM FATAL IO ERROR: (openfoam-2312)
[40] Entry 'smoother' not found in dictionary 
[40] 
[40] 
[40]     From const Foam::entry& Foam::dictionary::lookupEntry(const Foam::word&, Foam::keyType::option) const
[40]     in file db/dictionary/dictionary.C at line 363.
[40] 
FOAM parallel run exiting
[40] 

[46] 
[46] --> FOAM FATAL IO ERROR: (openfoam-2312)
[46] Entry 'smoother' not found in dictionary 
[46] 
[46] 
[46]     From const Foam::entry& Foam::dictionary::lookupEntry(const Foam::word&, Foam::keyType::option) const
[46]     in file db/dictionary/dictionary.C at line 363.
[46] 
FOAM parallel run exiting
[46] 
2312)
[48] Entry 'smoother' not found in dictionary 
[48] 
[48] 
[48]     From const Foam::entry& Foam::dictionary::lookupEntry(const Foam::word&, Foam::keyType::option) const
[48]     in file db/dictionary/dictionary.C at line 363.
[48] 
FOAM parallel run exiting
[48] 
--> FOAM FATAL IO ERROR: (openfoam-2312)
[54] Entry 'smoother' not found in dictionary 
[54] 
[54] 
[54]     From const Foam::entry& Foam::dictionary::lookupEntry(const Foam::word&, Foam::keyType::option) const
[54]     in file db/dictionary/dictionary.C at line 363.
[54] 
FOAM parallel run exiting
[54] 

[55] 
[55] --> FOAM FATAL IO ERROR: (openfoam-2312)
[55] Entry 'smoother' not found in dictionary 
[55] 
[55] 
[55]     From const Foam::entry& Foam::dictionary::lookupEntry(const Foam::word&, Foam::keyType::option) const
[55]     in file db/dictionary/dictionary.C at line 363.
[55] 
FOAM parallel run exiting
[55] 

[56] 
[56] --> FOAM FATAL IO ERROR: (openfoam-2312)
[56] Entry 'smoother' not found in dictionary 
[56] 
[56] 
[56]     From const Foam::entry& Foam::dictionary::lookupEntry(const Foam::word&, Foam::keyType::option) const
[56]     in file db/dictionary/dictionary.C at line 363.
[56] 
FOAM parallel run exiting
[56] 

[57] 
[57] --> FOAM FATAL IO ERROR: (openfoam-2312)
[57] Entry 'smoother' not found in dictionary 
[57] 
[57] 
[57]     From const Foam::entry& Foam::dictionary::lookupEntry(const Foam::word&, Foam::keyType::option) const
[57]     in file db/dictionary/dictionary.C at line 363.
[57] 
FOAM parallel run exiting
[57] 

[58] 
[58] --> FOAM FATAL IO ERROR: (openfoam-2312)
[58] Entry 'smoother' not found in dictionary 
[58] 
[58] 
[58]     From const Foam::entry& Foam::dictionary::lookupEntry(const Foam::word&, Foam::keyType::option) const
[58]     in file db/dictionary/dictionary.C at line 363.
[58] 
FOAM parallel run exiting
[58] 

[61] 
[61] --> FOAM FATAL IO ERROR: (openfoam-2312)
[61] Entry 'smoother' not found in dictionary 
[61] 
[61] 
[61]     From const Foam::entry& Foam::dictionary::lookupEntry(const Foam::word&, Foam::keyType::option) const
[61]     in file db/dictionary/dictionary.C at line 363.
[61] 
FOAM parallel run exiting
[61] 
--> FOAM FATAL IO ERROR: (openfoam-2312)
[71] Entry 'smoother' not found in dictionary 
[71] 
[71] 
[71]     From const Foam::entry& Foam::dictionary::lookupEntry(const Foam::word&, Foam::keyType::option) const
[71]     in file db/dictionary/dictionary.C at line 363.
[71] 
FOAM parallel run exiting
[71] 

[75] 
[75] --> FOAM FATAL IO ERROR: (openfoam-2312)
[75] Entry 'smoother' not found in dictionary 
[75] 
[75] 
[75]     From const Foam::entry& Foam::dictionary::lookupEntry(const Foam::word&, Foam::keyType::option) const
[75]     in file db/dictionary/dictionary.C at line 363.
[75] 
FOAM parallel run exiting
[75] 

[76] 
[76] --> FOAM FATAL IO ERROR: (openfoam-2312)
[76] Entry 'smoother' not found in dictionary 
[76] 
[76] 
[76]     From const Foam::entry& Foam::dictionary::lookupEntry(const Foam::word&, Foam::keyType::option) const
[76]     in file db/dictionary/dictionary.C at line 363.
[76] 
FOAM parallel run exiting
[76] 

[82] 
[82] --> FOAM FATAL IO ERROR: (openfoam-2312)
[82] Entry 'smoother' not found in dictionary 
[82] 
[82] 
[82]     From const Foam::entry& Foam::dictionary::lookupEntry(const Foam::word&, Foam::keyType::option) const
[82]     in file db/dictionary/dictionary.C at line 363.
[82] 
FOAM parallel run exiting
[82] 

[85] 
[85] --> FOAM FATAL IO ERROR: (openfoam-2312)
[85] Entry 'smoother' not found in dictionary 
[85] 
[85] 
[85]     From const Foam::entry& Foam::dictionary::lookupEntry(const Foam::word&, Foam::keyType::option) const
[85]     in file db/dictionary/dictionary.C at line 363.
[85] 
FOAM parallel run exiting
[85] 

[88] 
[88] --> FOAM FATAL IO ERROR: (openfoam-2312)
[88] Entry 'smoother' not found in dictionary 
[88] 
[88] 
[88]     From const Foam::entry& Foam::dictionary::lookupEntry(const Foam::word&, Foam::keyType::option) const
[88]     in file db/dictionary/dictionary.C at line 363.
[88] 
FOAM parallel run exiting
[88] 

[94] 
[94] --> FOAM FATAL IO ERROR: (openfoam-2312)
[94] Entry 'smoother' not found in dictionary 
[94] 
[94] 
[94]     From const Foam::entry& Foam::dictionary::lookupEntry(const Foam::word&, Foam::keyType::option) const
[94]     in file db/dictionary/dictionary.C at line 363.
[94] 
FOAM parallel run exiting
[94] 

[95] 
[95] --> FOAM FATAL IO ERROR: (openfoam-2312)
[95] Entry 'smoother' not found in dictionary 
[95] 
[95] 
[95]     From const Foam::entry& Foam::dictionary::lookupEntry(const Foam::word&, Foam::keyType::option) const
[95]     in file db/dictionary/dictionary.C at line 363.
[95] 
FOAM parallel run exiting
[95] 

[98] 
[98] --> FOAM FATAL IO ERROR: (openfoam-2312)
[98] Entry 'smoother' not found in dictionary 
[98] 
[98] 
[98]     From const Foam::entry& Foam::dictionary::lookupEntry(const Foam::word&, Foam::keyType::option) const
[98]     in file db/dictionary/dictionary.C at line 363.
[98] 
FOAM parallel run exiting
[98] 

[102] 
[102] --> FOAM FATAL IO ERROR: (openfoam-2312)
[102] Entry 'smoother' not found in dictionary 
[102] 
[102] 
[102]     From const Foam::entry& Foam::dictionary::lookupEntry(const Foam::word&, Foam::keyType::option) const
[102]     in file db/dictionary/dictionary.C at line 363.
[102] 
FOAM parallel run exiting
[102] 

[103] 
[103] --> FOAM FATAL IO ERROR: (openfoam-2312)
[103] Entry 'smoother' not found in dictionary 
[103] 
[103] 
[103]     From const Foam::entry& Foam::dictionary::lookupEntry(const Foam::word&, Foam::keyType::option) const
[103]     in file db/dictionary/dictionary.C at line 363.
[103] 
FOAM parallel run exiting
[103] 

[105] 
[105] --> FOAM FATAL IO ERROR: (openfoam-2312)
[105] Entry 'smoother' not found in dictionary 
[105] 
[105] 
[105]     From const Foam::entry& Foam::dictionary::lookupEntry(const Foam::word&, Foam::keyType::option) const
[105]     in file db/dictionary/dictionary.C at line 363.
[105] 
FOAM parallel run exiting
[105] 

[1] 
[1] --> FOAM FATAL IO ERROR: (openfoam-2312)
[1] Entry 'smoother' not found in dictionary 
[1] 
[1] 
[1]     From const Foam::entry& Foam::dictionary::lookupEntry(const Foam::word&, Foam::keyType::option) const
[1]     in file db/dictionary/dictionary.C at line 363.
[1] 
FOAM parallel run exiting
[1] 

[2] 
[2] --> FOAM FATAL IO ERROR: (openfoam-2312)
[2] Entry 'smoother' not found in dictionary 
[2] 
[2] 
[2]     From const Foam::entry& Foam::dictionary::lookupEntry(const Foam::word&, Foam::keyType::option) const
[2]     in file db/dictionary/dictionary.C at line 363.
[2] 
FOAM parallel run exiting
[2] 

[3] 
[3] --> FOAM FATAL IO ERROR: (openfoam-2312)
[3] Entry 'smoother' not found in dictionary 
[3] 
[3] 
[3]     From const Foam::entry& Foam::dictionary::lookupEntry(const Foam::word&, Foam::keyType::option) const
[3]     in file db/dictionary/dictionary.C at line 363.
[3] 
FOAM parallel run exiting
[3] 

[4] 
[4] --> FOAM FATAL IO ERROR: (openfoam-2312)
[4] Entry 'smoother' not found in dictionary 
[4] 
[4] 
[4]     From const Foam::entry& Foam::dictionary::lookupEntry(const Foam::word&, Foam::keyType::option) const
[4]     in file db/dictionary/dictionary.C at line 363.
[4] 
FOAM parallel run exiting
[4] 

[6] 
[6] --> FOAM FATAL IO ERROR: (openfoam-2312)
[6] Entry 'smoother' not found in dictionary 
[6] 
[6] 
[6]     From const Foam::entry& Foam::dictionary::lookupEntry(const Foam::word&, Foam::keyType::option) const
[6]     in file db/dictionary/dictionary.C at line 363.
[6] 
FOAM parallel run exiting
[6] 

[7] 
[7] --> FOAM FATAL IO ERROR: (openfoam-2312)
[7] Entry 'smoother' not found in dictionary 
[7] 
[7] 
[7]     From const Foam::entry& Foam::dictionary::lookupEntry(const Foam::word&, Foam::keyType::option) const
[7]     in file db/dictionary/dictionary.C at line 363.
[7] 
FOAM parallel run exiting
[7] 

[9] 
[9] --> FOAM FATAL IO ERROR: (openfoam-2312)
[9] Entry 'smoother' not found in dictionary 
[9] 
[9] 
[9]     From const Foam::entry& Foam::dictionary::lookupEntry(const Foam::word&, Foam::keyType::option) const
[9]     in file db/dictionary/dictionary.C at line 363.
[9] 
FOAM parallel run exiting
[9] 

[16] 
[16] --> FOAM FATAL IO ERROR: (openfoam-2312)
[16] Entry 'smoother' not found in dictionary 
[16] 
[16] 
[16]     From const Foam::entry& Foam::dictionary::lookupEntry(const Foam::word&, Foam::keyType::option) const
[16]     in file db/dictionary/dictionary.C at line 363.
[16] 
FOAM parallel run exiting
[16] 

[19] 
[19] --> FOAM FATAL IO ERROR: (openfoam-2312)
[19] Entry 'smoother' not found in dictionary 
[19] 
[19] 
[19]     From const Foam::entry& Foam::dictionary::lookupEntry(const Foam::word&, Foam::keyType::option) const
[19]     in file db/dictionary/dictionary.C at line 363.
[19] 
FOAM parallel run exiting
[19] 

[28] 
[28] --> FOAM FATAL IO ERROR: (openfoam-2312)
[28] Entry 'smoother' not found in dictionary 
[28] 
[28] 
[28]     From const Foam::entry& Foam::dictionary::lookupEntry(const Foam::word&, Foam::keyType::option) const
[28]     in file db/dictionary/dictionary.C at line 363.
[28] 
FOAM parallel run exiting
[28] 

[29] 
[29] --> FOAM FATAL IO ERROR: (openfoam-2312)
[29] Entry 'smoother' not found in dictionary 
[29] 
[29] 
[29]     From const Foam::entry& Foam::dictionary::lookupEntry(const Foam::word&, Foam::keyType::option) const
[29]     in file db/dictionary/dictionary.C at line 363.
[29] 
FOAM parallel run exiting
[29] 

[30] 
[30] --> FOAM FATAL IO ERROR: (openfoam-2312)
[30] Entry 'smoother' not found in dictionary 
[30] 
[30] 
[30]     From const Foam::entry& Foam::dictionary::lookupEntry(const Foam::word&, Foam::keyType::option) const
[30]     in file db/dictionary/dictionary.C at line 363.
[30] 
FOAM parallel run exiting
[30] 

[32] 
[32] --> FOAM FATAL IO ERROR: (openfoam-2312)
[32] Entry 'smoother' not found in dictionary 
[32] 
[32] 
[32]     From const Foam::entry& Foam::dictionary::lookupEntry(const Foam::word&, Foam::keyType::option) const
[32]     in file db/dictionary/dictionary.C at line 363.
[32] 
FOAM parallel run exiting
[32] 

[35] 
[35] --> FOAM FATAL IO ERROR: (openfoam-2312)
[35] Entry 'smoother' not found in dictionary 
[35] 
[35] 
[35]     From const Foam::entry& Foam::dictionary::lookupEntry(const Foam::word&, Foam::keyType::option) const
[35]     in file db/dictionary/dictionary.C at line 363.
[35] 
FOAM parallel run exiting
[35] 

[38] 
[38] --> FOAM FATAL IO ERROR: (openfoam-2312)
[38] Entry 'smoother' not found in dictionary 
[38] 
[38] 
[38]     From const Foam::entry& Foam::dictionary::lookupEntry(const Foam::word&, Foam::keyType::option) const
[38]     in file db/dictionary/dictionary.C at line 363.
[38] 
FOAM parallel run exiting
[38] 

[42] 
[42] --> FOAM FATAL IO ERROR: (openfoam-2312)
[42] Entry 'smoother' not found in dictionary 
[42] 
[42] 
[42]     From const Foam::entry& Foam::dictionary::lookupEntry(const Foam::word&, Foam::keyType::option) const
[42]     in file db/dictionary/dictionary.C at line 363.
[42] 
FOAM parallel run exiting
[42] 

[43] 
[43] --> FOAM FATAL IO ERROR: (openfoam-2312)
[43] Entry 'smoother' not found in dictionary 
[43] 
[43] 
[43]     From const Foam::entry& Foam::dictionary::lookupEntry(const Foam::word&, Foam::keyType::option) const
[43]     in file db/dictionary/dictionary.C at line 363.
[43] 
FOAM parallel run exiting
[43] 

[50] 
[50] --> FOAM FATAL IO ERROR: (openfoam-2312)
[50] Entry 'smoother' not found in dictionary 
[50] 
[50] 
[50]     From const Foam::entry& Foam::dictionary::lookupEntry(const Foam::word&, Foam::keyType::option) const
[50]     in file db/dictionary/dictionary.C at line 363.
[50] 
FOAM parallel run exiting
[50] 

[51] 
[51] --> FOAM FATAL IO ERROR: (openfoam-2312)
[51] Entry 'smoother' not found in dictionary 
[51] 
[51] 
[51]     From const Foam::entry& Foam::dictionary::lookupEntry(const Foam::word&, Foam::keyType::option) const
[51]     in file db/dictionary/dictionary.C at line 363.
[51] 
FOAM parallel run exiting
[51] 

[52] 
[52] --> FOAM FATAL IO ERROR: (openfoam-2312)
[52] Entry 'smoother' not found in dictionary 
[52] 
[52] 
[52]     From const Foam::entry& Foam::dictionary::lookupEntry(const Foam::word&, Foam::keyType::option) const
[52]     in file db/dictionary/dictionary.C at line 363.
[52] 
FOAM parallel run exiting
[52] 

[59] 
[59] --> FOAM FATAL IO ERROR: (openfoam-2312)
[59] Entry 'smoother' not found in dictionary 
[59] 
[59] 
[59]     From const Foam::entry& Foam::dictionary::lookupEntry(const Foam::word&, Foam::keyType::option) const
[59]     in file db/dictionary/dictionary.C at line 363.
[59] 
FOAM parallel run exiting
[59] 

[60] 
[60] --> FOAM FATAL IO ERROR: (openfoam-2312)
[60] Entry 'smoother' not found in dictionary 
[60] 
[60] 
[60]     From const Foam::entry& Foam::dictionary::lookupEntry(const Foam::word&, Foam::keyType::option) const
[60]     in file db/dictionary/dictionary.C at line 363.
[60] 
FOAM parallel run exiting
[60] 

[64] 
[64] --> FOAM FATAL IO ERROR: (openfoam-2312)
[64] Entry 'smoother' not found in dictionary 
[64] 
[64] 
[64]     From const Foam::entry& Foam::dictionary::lookupEntry(const Foam::word&, Foam::keyType::option) const
[64]     in file db/dictionary/dictionary.C at line 363.
[64] 
FOAM parallel run exiting
[64] 

[66] 
[66] --> FOAM FATAL IO ERROR: (openfoam-2312)
[66] Entry 'smoother' not found in dictionary 
[66] 
[66] 
[66]     From const Foam::entry& Foam::dictionary::lookupEntry(const Foam::word&, Foam::keyType::option) const
[66]     in file db/dictionary/dictionary.C at line 363.
[66] 
FOAM parallel run exiting
[66] 

[67] 
[67] --> FOAM FATAL IO ERROR: (openfoam-2312)
[67] Entry 'smoother' not found in dictionary 
[67] 
[67] 
[67]     From const Foam::entry& Foam::dictionary::lookupEntry(const Foam::word&, Foam::keyType::option) const
[67]     in file db/dictionary/dictionary.C at line 363.
[67] 
FOAM parallel run exiting
[67] 

[68] 
[68] --> FOAM FATAL IO ERROR: (openfoam-2312)
[68] Entry 'smoother' not found in dictionary 
[68] 
[68] 
[68]     From const Foam::entry& Foam::dictionary::lookupEntry(const Foam::word&, Foam::keyType::option) const
[68]     in file db/dictionary/dictionary.C at line 363.
[68] 
FOAM parallel run exiting
[68] 

[73] 
[73] --> FOAM FATAL IO ERROR: (openfoam-2312)
[73] Entry 'smoother' not found in dictionary 
[73] 
[73] 
[73]     From const Foam::entry& Foam::dictionary::lookupEntry(const Foam::word&, Foam::keyType::option) const
[73]     in file db/dictionary/dictionary.C at line 363.
[73] 
FOAM parallel run exiting
[73] 

[74] 
[74] --> FOAM FATAL IO ERROR: (openfoam-2312)
[74] Entry 'smoother' not found in dictionary 
[74] 
[74] 
[74]     From const Foam::entry& Foam::dictionary::lookupEntry(const Foam::word&, Foam::keyType::option) const
[74]     in file db/dictionary/dictionary.C at line 363.
[74] 
FOAM parallel run exiting
[74] 

[79] 
[79] --> FOAM FATAL IO ERROR: (openfoam-2312)
[79] Entry 'smoother' not found in dictionary 
[79] 
[79] 
[79]     From const Foam::entry& Foam::dictionary::lookupEntry(const Foam::word&, Foam::keyType::option) const
[79]     in file db/dictionary/dictionary.C at line 363.
[79] 
FOAM parallel run exiting
[79] 

[80] 
[80] --> FOAM FATAL IO ERROR: (openfoam-2312)
[80] Entry 'smoother' not found in dictionary 
[80] 
[80] 
[80]     From const Foam::entry& Foam::dictionary::lookupEntry(const Foam::word&, Foam::keyType::option) const
[80]     in file db/dictionary/dictionary.C at line 363.
[80] 
FOAM parallel run exiting
[80] 

[84] 
[84] --> FOAM FATAL IO ERROR: (openfoam-2312)
[84] Entry 'smoother' not found in dictionary 
[84] 
[84] 
[84]     From const Foam::entry& Foam::dictionary::lookupEntry(const Foam::word&, Foam::keyType::option) const
[84]     in file db/dictionary/dictionary.C at line 363.
[84] 
FOAM parallel run exiting
[84] 

[87] 
[87] --> FOAM FATAL IO ERROR: (openfoam-2312)
[87] Entry 'smoother' not found in dictionary 
[87] 
[87] 
[87]     From const Foam::entry& Foam::dictionary::lookupEntry(const Foam::word&, Foam::keyType::option) const
[87]     in file db/dictionary/dictionary.C at line 363.
[87] 
FOAM parallel run exiting
[87] 

[90] 
[90] --> FOAM FATAL IO ERROR: (openfoam-2312)
[90] Entry 'smoother' not found in dictionary 
[90] 
[90] 
[90]     From const Foam::entry& Foam::dictionary::lookupEntry(const Foam::word&, Foam::keyType::option) const
[90]     in file db/dictionary/dictionary.C at line 363.
[90] 
FOAM parallel run exiting
[90] 

[91] 
[91] --> FOAM FATAL IO ERROR: (openfoam-2312)
[91] Entry 'smoother' not found in dictionary 
[91] 
[91] 
[91]     From const Foam::entry& Foam::dictionary::lookupEntry(const Foam::word&, Foam::keyType::option) const
[91]     in file db/dictionary/dictionary.C at line 363.
[91] 
FOAM parallel run exiting
[91] 

[104] 
[104] --> FOAM FATAL IO ERROR: (openfoam-2312)
[104] Entry 'smoother' not found in dictionary 
[104] 
[104] 
[104]     From const Foam::entry& Foam::dictionary::lookupEntry(const Foam::word&, Foam::keyType::option) const
[104]     in file db/dictionary/dictionary.C at line 363.
[104] 
FOAM parallel run exiting
[104] 

[111] 
[111] --> FOAM FATAL IO ERROR: (openfoam-2312)
[111] Entry 'smoother' not found in dictionary 
[111] 
[111] 
[111]     From const Foam::entry& Foam::dictionary::lookupEntry(const Foam::word&, Foam::keyType::option) const
[111]     in file db/dictionary/dictionary.C at line 363.
[111] 
FOAM parallel run exiting
[111] 
Abort(1) on node 5 (rank 5 in comm 0): application called MPI_Abort(MPI_COMM_WORLD, 1) - process 5
Abort(1) on node 12 (rank 12 in comm 0): application called MPI_Abort(MPI_COMM_WORLD, 1) - process 12
Abort(1) on node 14 (rank 14 in comm 0): application called MPI_Abort(MPI_COMM_WORLD, 1) - process 14

[23] 
[23] --> FOAM FATAL IO ERROR: (openfoam-2312)
[23] Entry 'smoother' not found in dictionary 
[23] 
[23] 
[23]     From const Foam::entry& Foam::dictionary::lookupEntry(const Foam::word&, Foam::keyType::option) const
[23]     in file db/dictionary/dictionary.C at line 363.
[23] 
FOAM parallel run exiting
[23] 
Abort(1) on node 23 (rank 23 in comm 0): application called MPI_Abort(MPI_COMM_WORLD, 1) - process 23
Abort(1) on node 25 (rank 25 in comm 0): application called MPI_Abort(MPI_COMM_WORLD, 1) - process 25

[39] 
[39] --> FOAM FATAL IO ERROR: (openfoam-2312)
[39] Entry 'smoother' not found in dictionary 
[39] 
[39] 
[39]     From const Foam::entry& Foam::dictionary::lookupEntry(const Foam::word&, Foam::keyType::option) const
[39]     in file db/dictionary/dictionary.C at line 363.
[39] 
FOAM parallel run exiting
[39] 
Abort(1) on node 39 (rank 39 in comm 0): application called MPI_Abort(MPI_COMM_WORLD, 1) - process 39

[44] 
[44] --> FOAM FATAL IO ERROR: (openfoam-2312)
[44] Entry 'smoother' not found in dictionary 
[44] 
[44] 
[44]     From const Foam::entry& Foam::dictionary::lookupEntry(const Foam::word&, Foam::keyType::option) const
[44]     in file db/dictionary/dictionary.C at line 363.
[44] 
FOAM parallel run exiting
[44] 
Abort(1) on node 44 (rank 44 in comm 0): application called MPI_Abort(MPI_COMM_WORLD, 1) - process 44

[45] 
[45] --> FOAM FATAL IO ERROR: (openfoam-2312)
[45] Entry 'smoother' not found in dictionary 
[45] 
[45] 
[45]     From const Foam::entry& Foam::dictionary::lookupEntry(const Foam::word&, Foam::keyType::option) const
[45]     in file db/dictionary/dictionary.C at line 363.
[45] 
FOAM parallel run exiting
[45] 
Abort(1) on node 45 (rank 45 in comm 0): application called MPI_Abort(MPI_COMM_WORLD, 1) - process 45

[65] 
[65] --> FOAM FATAL IO ERROR: (openfoam-2312)
[65] Entry 'smoother' not found in dictionary 
[65] 
[65] 
[65]     From const Foam::entry& Foam::dictionary::lookupEntry(const Foam::word&, Foam::keyType::option) const
[65]     in file db/dictionary/dictionary.C at line 363.
[65] 
FOAM parallel run exiting
[65] 
Abort(1) on node 65 (rank 65 in comm 0): application called MPI_Abort(MPI_COMM_WORLD, 1) - process 65

[69] 
[69] --> FOAM FATAL IO ERROR: (openfoam-2312)
[69] Entry 'smoother' not found in dictionary 
[69] 
[69] 
[69]     From const Foam::entry& Foam::dictionary::lookupEntry(const Foam::word&, Foam::keyType::option) const
[69]     in file db/dictionary/dictionary.C at line 363.
[69] 
FOAM parallel run exiting
[69] 
Abort(1) on node 69 (rank 69 in comm 0): application called MPI_Abort(MPI_COMM_WORLD, 1) - process 69

[77] 
[77] --> FOAM FATAL IO ERROR: (openfoam-2312)
[77] Entry 'smoother' not found in dictionary 
[77] 
[77] 
[77]     From const Foam::entry& Foam::dictionary::lookupEntry(const Foam::word&, Foam::keyType::option) const
[77]     in file db/dictionary/dictionary.C at line 363.
[77] 
FOAM parallel run exiting
[77] 
Abort(1) on node 77 (rank 77 in comm 0): application called MPI_Abort(MPI_COMM_WORLD, 1) - process 77

[83] 
[83] --> FOAM FATAL IO ERROR: (openfoam-2312)
[83] Entry 'smoother' not found in dictionary 
[83] 
[83] 
[83]     From const Foam::entry& Foam::dictionary::lookupEntry(const Foam::word&, Foam::keyType::option) const
[83]     in file db/dictionary/dictionary.C at line 363.
[83] 
FOAM parallel run exiting
[83] 
Abort(1) on node 83 (rank 83 in comm 0): application called MPI_Abort(MPI_COMM_WORLD, 1) - process 83

[101] 
[101] --> FOAM FATAL IO ERROR: (openfoam-2312)
[101] Entry 'smoother' not found in dictionary 
[101] 
[101] 
[101]     From const Foam::entry& Foam::dictionary::lookupEntry(const Foam::word&, Foam::keyType::option) const
[101]     in file db/dictionary/dictionary.C at line 363.
[101] 
FOAM parallel run exiting
[101] 
Abort(1) on node 101 (rank 101 in comm 0): application called MPI_Abort(MPI_COMM_WORLD, 1) - process 101

[106] 
[106] --> FOAM FATAL IO ERROR: (openfoam-2312)
[106] Entry 'smoother' not found in dictionary 
[106] 
[106] 
[106]     From const Foam::entry& Foam::dictionary::lookupEntry(const Foam::word&, Foam::keyType::option) const
[106]     in file db/dictionary/dictionary.C at line 363.
[106] 
FOAM parallel run exiting
[106] 
Abort(1) on node 106 (rank 106 in comm 0): application called MPI_Abort(MPI_COMM_WORLD, 1) - process 106

[108] 
[108] --> FOAM FATAL IO ERROR: (openfoam-2312)
[108] Entry 'smoother' not found in dictionary 
[108] 
[108] 
[108]     From const Foam::entry& Foam::dictionary::lookupEntry(const Foam::word&, Foam::keyType::option) const
[108]     in file db/dictionary/dictionary.C at line 363.
[108] 
FOAM parallel run exiting
[108] 
Abort(1) on node 108 (rank 108 in comm 0): application called MPI_Abort(MPI_COMM_WORLD, 1) - process 108
Abort(1) on node 10 (rank 10 in comm 0): application called MPI_Abort(MPI_COMM_WORLD, 1) - process 10
Abort(1) on node 11 (rank 11 in comm 0): application called MPI_Abort(MPI_COMM_WORLD, 1) - process 11
Abort(1) on node 13 (rank 13 in comm 0): application called MPI_Abort(MPI_COMM_WORLD, 1) - process 13
Abort(1) on node 15 (rank 15 in comm 0): application called MPI_Abort(MPI_COMM_WORLD, 1) - process 15
Abort(1) on node 16 (rank 16 in comm 0): application called MPI_Abort(MPI_COMM_WORLD, 1) - process 16
Abort(1) on node 17 (rank 17 in comm 0): application called MPI_Abort(MPI_COMM_WORLD, 1) - process 17
Abort(1) on node 18 (rank 18 in comm 0): application called MPI_Abort(MPI_COMM_WORLD, 1) - process 18
Abort(1) on node 19 (rank 19 in comm 0): application called MPI_Abort(MPI_COMM_WORLD, 1) - process 19
Abort(1) on node 20 (rank 20 in comm 0): application called MPI_Abort(MPI_COMM_WORLD, 1) - process 20
Abort(1) on node 21 (rank 21 in comm 0): application called MPI_Abort(MPI_COMM_WORLD, 1) - process 21
Abort(1) on node 22 (rank 22 in comm 0): application called MPI_Abort(MPI_COMM_WORLD, 1) - process 22
Abort(1) on node 24 (rank 24 in comm 0): application called MPI_Abort(MPI_COMM_WORLD, 1) - process 24
Abort(1) on node 26 (rank 26 in comm 0): application called MPI_Abort(MPI_COMM_WORLD, 1) - process 26
Abort(1) on node 27 (rank 27 in comm 0): application called MPI_Abort(MPI_COMM_WORLD, 1) - process 27
Abort(1) on node 28 (rank 28 in comm 0): application called MPI_Abort(MPI_COMM_WORLD, 1) - process 28
Abort(1) on node 29 (rank 29 in comm 0): application called MPI_Abort(MPI_COMM_WORLD, 1) - process 29
Abort(1) on node 30 (rank 30 in comm 0): application called MPI_Abort(MPI_COMM_WORLD, 1) - process 30
Abort(1) on node 31 (rank 31 in comm 0): application called MPI_Abort(MPI_COMM_WORLD, 1) - process 31
Abort(1) on node 32 (rank 32 in comm 0): application called MPI_Abort(MPI_COMM_WORLD, 1) - process 32
Abort(1) on node 33 (rank 33 in comm 0): application called MPI_Abort(MPI_COMM_WORLD, 1) - process 33
Abort(1) on node 34 (rank 34 in comm 0): application called MPI_Abort(MPI_COMM_WORLD, 1) - process 34
Abort(1) on node 35 (rank 35 in comm 0): application called MPI_Abort(MPI_COMM_WORLD, 1) - process 35
Abort(1) on node 36 (rank 36 in comm 0): application called MPI_Abort(MPI_COMM_WORLD, 1) - process 36
Abort(1) on node 37 (rank 37 in comm 0): application called MPI_Abort(MPI_COMM_WORLD, 1) - process 37
Abort(1) on node 38 (rank 38 in comm 0): application called MPI_Abort(MPI_COMM_WORLD, 1) - process 38
Abort(1) on node 40 (rank 40 in comm 0): application called MPI_Abort(MPI_COMM_WORLD, 1) - process 40
Abort(1) on node 41 (rank 41 in comm 0): application called MPI_Abort(MPI_COMM_WORLD, 1) - process 41
Abort(1) on node 42 (rank 42 in comm 0): application called MPI_Abort(MPI_COMM_WORLD, 1) - process 42
Abort(1) on node 43 (rank 43 in comm 0): application called MPI_Abort(MPI_COMM_WORLD, 1) - process 43
Abort(1) on node 46 (rank 46 in comm 0): application called MPI_Abort(MPI_COMM_WORLD, 1) - process 46
Abort(1) on node 47 (rank 47 in comm 0): application called MPI_Abort(MPI_COMM_WORLD, 1) - process 47
Abort(1) on node 48 (rank 48 in comm 0): application called MPI_Abort(MPI_COMM_WORLD, 1) - process 48
Abort(1) on node 49 (rank 49 in comm 0): application called MPI_Abort(MPI_COMM_WORLD, 1) - process 49
Abort(1) on node 50 (rank 50 in comm 0): application called MPI_Abort(MPI_COMM_WORLD, 1) - process 50
Abort(1) on node 51 (rank 51 in comm 0): application called MPI_Abort(MPI_COMM_WORLD, 1) - process 51
Abort(1) on node 52 (rank 52 in comm 0): application called MPI_Abort(MPI_COMM_WORLD, 1) - process 52
Abort(1) on node 53 (rank 53 in comm 0): application called MPI_Abort(MPI_COMM_WORLD, 1) - process 53
Abort(1) on node 54 (rank 54 in comm 0): application called MPI_Abort(MPI_COMM_WORLD, 1) - process 54
Abort(1) on node 55 (rank 55 in comm 0): application called MPI_Abort(MPI_COMM_WORLD, 1) - process 55
Abort(1) on node 56 (rank 56 in comm 0): application called MPI_Abort(MPI_COMM_WORLD, 1) - process 56
Abort(1) on node 57 (rank 57 in comm 0): application called MPI_Abort(MPI_COMM_WORLD, 1) - process 57
Abort(1) on node 58 (rank 58 in comm 0): application called MPI_Abort(MPI_COMM_WORLD, 1) - process 58
Abort(1) on node 59 (rank 59 in comm 0): application called MPI_Abort(MPI_COMM_WORLD, 1) - process 59
Abort(1) on node 60 (rank 60 in comm 0): application called MPI_Abort(MPI_COMM_WORLD, 1) - process 60
Abort(1) on node 61 (rank 61 in comm 0): application called MPI_Abort(MPI_COMM_WORLD, 1) - process 61
Abort(1) on node 62 (rank 62 in comm 0): application called MPI_Abort(MPI_COMM_WORLD, 1) - process 62
Abort(1) on node 63 (rank 63 in comm 0): application called MPI_Abort(MPI_COMM_WORLD, 1) - process 63
Abort(1) on node 64 (rank 64 in comm 0): application called MPI_Abort(MPI_COMM_WORLD, 1) - process 64
Abort(1) on node 66 (rank 66 in comm 0): application called MPI_Abort(MPI_COMM_WORLD, 1) - process 66
Abort(1) on node 67 (rank 67 in comm 0): application called MPI_Abort(MPI_COMM_WORLD, 1) - process 67
Abort(1) on node 68 (rank 68 in comm 0): application called MPI_Abort(MPI_COMM_WORLD, 1) - process 68
Abort(1) on node 70 (rank 70 in comm 0): application called MPI_Abort(MPI_COMM_WORLD, 1) - process 70
Abort(1) on node 71 (rank 71 in comm 0): application called MPI_Abort(MPI_COMM_WORLD, 1) - process 71
Abort(1) on node 72 (rank 72 in comm 0): application called MPI_Abort(MPI_COMM_WORLD, 1) - process 72
Abort(1) on node 73 (rank 73 in comm 0): application called MPI_Abort(MPI_COMM_WORLD, 1) - process 73
Abort(1) on node 74 (rank 74 in comm 0): application called MPI_Abort(MPI_COMM_WORLD, 1) - process 74
Abort(1) on node 75 (rank 75 in comm 0): application called MPI_Abort(MPI_COMM_WORLD, 1) - process 75
Abort(1) on node 76 (rank 76 in comm 0): application called MPI_Abort(MPI_COMM_WORLD, 1) - process 76
Abort(1) on node 78 (rank 78 in comm 0): application called MPI_Abort(MPI_COMM_WORLD, 1) - process 78
Abort(1) on node 79 (rank 79 in comm 0): application called MPI_Abort(MPI_COMM_WORLD, 1) - process 79
Abort(1) on node 80 (rank 80 in comm 0): application called MPI_Abort(MPI_COMM_WORLD, 1) - process 80
Abort(1) on node 81 (rank 81 in comm 0): application called MPI_Abort(MPI_COMM_WORLD, 1) - process 81
Abort(1) on node 82 (rank 82 in comm 0): application called MPI_Abort(MPI_COMM_WORLD, 1) - process 82
Abort(1) on node 84 (rank 84 in comm 0): application called MPI_Abort(MPI_COMM_WORLD, 1) - process 84
Abort(1) on node 85 (rank 85 in comm 0): application called MPI_Abort(MPI_COMM_WORLD, 1) - process 85
Abort(1) on node 86 (rank 86 in comm 0): application called MPI_Abort(MPI_COMM_WORLD, 1) - process 86
Abort(1) on node 87 (rank 87 in comm 0): application called MPI_Abort(MPI_COMM_WORLD, 1) - process 87
Abort(1) on node 88 (rank 88 in comm 0): application called MPI_Abort(MPI_COMM_WORLD, 1) - process 88
Abort(1) on node 89 (rank 89 in comm 0): application called MPI_Abort(MPI_COMM_WORLD, 1) - process 89
Abort(1) on node 90 (rank 90 in comm 0): application called MPI_Abort(MPI_COMM_WORLD, 1) - process 90
Abort(1) on node 91 (rank 91 in comm 0): application called MPI_Abort(MPI_COMM_WORLD, 1) - process 91
Abort(1) on node 92 (rank 92 in comm 0): application called MPI_Abort(MPI_COMM_WORLD, 1) - process 92
Abort(1) on node 93 (rank 93 in comm 0): application called MPI_Abort(MPI_COMM_WORLD, 1) - process 93
Abort(1) on node 94 (rank 94 in comm 0): application called MPI_Abort(MPI_COMM_WORLD, 1) - process 94
Abort(1) on node 95 (rank 95 in comm 0): application called MPI_Abort(MPI_COMM_WORLD, 1) - process 95
Abort(1) on node 96 (rank 96 in comm 0): application called MPI_Abort(MPI_COMM_WORLD, 1) - process 96
Abort(1) on node 97 (rank 97 in comm 0): application called MPI_Abort(MPI_COMM_WORLD, 1) - process 97
Abort(1) on node 98 (rank 98 in comm 0): application called MPI_Abort(MPI_COMM_WORLD, 1) - process 98
Abort(1) on node 99 (rank 99 in comm 0): application called MPI_Abort(MPI_COMM_WORLD, 1) - process 99
Abort(1) on node 100 (rank 100 in comm 0): application called MPI_Abort(MPI_COMM_WORLD, 1) - process 100
Abort(1) on node 102 (rank 102 in comm 0): application called MPI_Abort(MPI_COMM_WORLD, 1) - process 102
Abort(1) on node 103 (rank 103 in comm 0): application called MPI_Abort(MPI_COMM_WORLD, 1) - process 103
Abort(1) on node 104 (rank 104 in comm 0): application called MPI_Abort(MPI_COMM_WORLD, 1) - process 104
Abort(1) on node 105 (rank 105 in comm 0): application called MPI_Abort(MPI_COMM_WORLD, 1) - process 105
Abort(1) on node 107 (rank 107 in comm 0): application called MPI_Abort(MPI_COMM_WORLD, 1) - process 107
Abort(1) on node 109 (rank 109 in comm 0): application called MPI_Abort(MPI_COMM_WORLD, 1) - process 109
Abort(1) on node 110 (rank 110 in comm 0): application called MPI_Abort(MPI_COMM_WORLD, 1) - process 110
Abort(1) on node 111 (rank 111 in comm 0): application called MPI_Abort(MPI_COMM_WORLD, 1) - process 111
