/*---------------------------------------------------------------------------*\
| =========                 |                                                 |
| \\      /  F ield         | OpenFOAM: The Open Source CFD Toolbox           |
|  \\    /   O peration     | Version:  2306                                  |
|   \\  /    A nd           | Website:  www.openfoam.com                      |
|    \\/     M anipulation  |                                                 |
\*---------------------------------------------------------------------------*/
Build  : c423ebec-20231012 OPENFOAM=2306 version=v2306
Arch   : "LSB;label=32;scalar=64"
Exec   : simpleFoam -parallel -case /hkfs/work/workspace/scratch/eq4036-windsorbody_setup/workspace/98667cafd28ab902e9ca0b7f5330bd48/case
Date   : Feb 16 2024
Time   : 14:52:03
Host   : hkn0406.localdomain
PID    : 350379
I/O    : uncollated
Case   : /hkfs/work/workspace/scratch/eq4036-windsorbody_setup/workspace/98667cafd28ab902e9ca0b7f5330bd48/case
nProcs : 4
Hosts  :
(
    (hkn0406.localdomain 4)
)
Pstream initialized with:
    floatTransfer      : false
    nProcsSimpleSum    : 0
    nonBlockingExchange: 0 (tuning: 0)
    exchange algorithm : -1
    commsType          : nonBlocking
    polling iterations : 0
trapFpe: Floating point exception trapping enabled (FOAM_SIGFPE).
fileModificationChecking : Monitoring run-time modified files using timeStampMaster (fileModificationSkew 5, maxFileModificationPolls 20)
allowSystemOperations : Allowing user-supplied system call operations

// * * * * * * * * * * * * * * * * * * * * * * * * * * * * * * * * * * * * * //
Create time

--> FOAM Warning : 
    From void* Foam::dlLibraryTable::openLibrary(const Foam::fileName&, bool)
    in file db/dynamicLibrary/dlLibraryTable/dlLibraryTable.C at line 188
    Could not load "libpetscFoam.so"
libpetscFoam.so: cannot open shared object file: No such file or directory
Create mesh for time = 0


SIMPLE: convergence criteria
    field p	 tolerance 1e-08
    field U	 tolerance 1e-08
    field k	 tolerance 1e-08
    field omega	 tolerance 1e-08
    field nuTilda	 tolerance 1e-08

Reading field p

Reading field U

Reading/calculating face flux field phi

Selecting incompressible transport model Newtonian
Selecting turbulence model type RAS
Selecting RAS turbulence model SpalartAllmaras
Selecting patchDistMethod meshWave
ft2 term: inactive
RAS
{
    RASModel        SpalartAllmaras;
    turbulence      on;
    printCoeffs     on;
    sigmaNut        0.66666;
    kappa           0.41;
    Cb1             0.1355;
    Cb2             0.622;
    Cw2             0.3;
    Cw3             2;
    Cv1             7.1;
    Cs              0.3;
    ck              0.07000000000000001;
    ft2             false;
    Ct3             1.2;
    Ct4             0.5;
}

No MRF models present

Creating finite volume options from "system/fvOptions"

Selecting finite volume options type velocityDampingConstraint
    Source: velocityDamping
    - selecting all cells
    - selected 25228544 cell(s) with volume 111.3033220647997

Starting time loop

--> FOAM Warning : 
    From bool Foam::functionObjectList::read()
    in file db/functionObjects/functionObjectList/functionObjectList.C at line 1035
    Reading "system/controlDict" at line 2 to 41
    Entry 'lref' is not a dictionary
--> FOAM Warning : 
    From bool Foam::functionObjectList::read()
    in file db/functionObjects/functionObjectList/functionObjectList.C at line 1035
    Reading "system/controlDict" at line 2 to 41
    Entry 'Aref' is not a dictionary
--> FOAM Warning : 
    From bool Foam::functionObjectList::read()
    in file db/functionObjects/functionObjectList/functionObjectList.C at line 1035
    Reading "system/controlDict" at line 2 to 41
    Entry 'yawAngle' is not a dictionary
--> FOAM Warning : 
    From bool Foam::functionObjectList::read()
    in file db/functionObjects/functionObjectList/functionObjectList.C at line 1035
    Reading "system/controlDict" at line 2 to 41
    Entry 'lDomain' is not a dictionary
--> FOAM Warning : 
    From bool Foam::functionObjectList::read()
    in file db/functionObjects/functionObjectList/functionObjectList.C at line 1035
    Reading "system/controlDict" at line 2 to 41
    Entry 'bDomain' is not a dictionary
--> FOAM Warning : 
    From bool Foam::functionObjectList::read()
    in file db/functionObjects/functionObjectList/functionObjectList.C at line 1035
    Reading "system/controlDict" at line 2 to 41
    Entry 'hDomain' is not a dictionary
--> FOAM Warning : 
    From bool Foam::functionObjectList::read()
    in file db/functionObjects/functionObjectList/functionObjectList.C at line 1035
    Reading "system/controlDict" at line 2 to 41
    Entry 'xCenter' is not a dictionary
--> FOAM Warning : 
    From bool Foam::functionObjectList::read()
    in file db/functionObjects/functionObjectList/functionObjectList.C at line 1035
    Reading "system/controlDict" at line 2 to 41
    Entry 'yCenter' is not a dictionary
--> FOAM Warning : 
    From bool Foam::functionObjectList::read()
    in file db/functionObjects/functionObjectList/functionObjectList.C at line 1035
    Reading "system/controlDict" at line 2 to 41
    Entry 'zCenter' is not a dictionary
--> FOAM Warning : 
    From bool Foam::functionObjectList::read()
    in file db/functionObjects/functionObjectList/functionObjectList.C at line 1035
    Reading "system/controlDict" at line 2 to 41
    Entry 'inletPatch' is not a dictionary
--> FOAM Warning : 
    From bool Foam::functionObjectList::read()
    in file db/functionObjects/functionObjectList/functionObjectList.C at line 1035
    Reading "system/controlDict" at line 2 to 41
    Entry 'outletPatch' is not a dictionary
--> FOAM Warning : 
    From bool Foam::functionObjectList::read()
    in file db/functionObjects/functionObjectList/functionObjectList.C at line 1035
    Reading "system/controlDict" at line 2 to 41
    Entry 'wallPatches' is not a dictionary
--> FOAM Warning : 
    From bool Foam::functionObjectList::read()
    in file db/functionObjects/functionObjectList/functionObjectList.C at line 1035
    Reading "system/controlDict" at line 2 to 41
    Entry 'forcesWallPatches' is not a dictionary
--> FOAM Warning : 
    From bool Foam::functionObjectList::read()
    in file db/functionObjects/functionObjectList/functionObjectList.C at line 1035
    Reading "system/controlDict" at line 2 to 41
    Entry 'symmPatches' is not a dictionary
--> FOAM Warning : 
    From bool Foam::functionObjectList::read()
    in file db/functionObjects/functionObjectList/functionObjectList.C at line 1035
    Reading "system/controlDict" at line 2 to 41
    Entry 'Uinf' is not a dictionary
--> FOAM Warning : 
    From bool Foam::functionObjectList::read()
    in file db/functionObjects/functionObjectList/functionObjectList.C at line 1035
    Reading "system/controlDict" at line 2 to 41
    Entry 'UinfMag' is not a dictionary
--> FOAM Warning : 
    From bool Foam::functionObjectList::read()
    in file db/functionObjects/functionObjectList/functionObjectList.C at line 1035
    Reading "system/controlDict" at line 2 to 41
    Entry 'nu' is not a dictionary
--> FOAM Warning : 
    From bool Foam::functionObjectList::read()
    in file db/functionObjects/functionObjectList/functionObjectList.C at line 1035
    Reading "system/controlDict" at line 2 to 41
    Entry 'pref' is not a dictionary
--> FOAM Warning : 
    From bool Foam::functionObjectList::read()
    in file db/functionObjects/functionObjectList/functionObjectList.C at line 1035
    Reading "system/controlDict" at line 2 to 41
    Entry 'viscRatio' is not a dictionary
--> FOAM Warning : 
    From bool Foam::functionObjectList::read()
    in file db/functionObjects/functionObjectList/functionObjectList.C at line 1035
    Reading "system/controlDict" at line 2 to 41
    Entry 'Tu' is not a dictionary
--> FOAM Warning : 
    From bool Foam::functionObjectList::read()
    in file db/functionObjects/functionObjectList/functionObjectList.C at line 1035
    Reading "system/controlDict" at line 2 to 41
    Entry 'LESturbModel' is not a dictionary
--> FOAM Warning : 
    From bool Foam::functionObjectList::read()
    in file db/functionObjects/functionObjectList/functionObjectList.C at line 1035
    Reading "system/controlDict" at line 2 to 41
    Entry 'RASturbModel' is not a dictionary
--> FOAM Warning : 
    From bool Foam::functionObjectList::read()
    in file db/functionObjects/functionObjectList/functionObjectList.C at line 1035
    Reading "system/controlDict" at line 2 to 41
    Entry 'deltaTurb' is not a dictionary
--> FOAM Warning : 
    From bool Foam::functionObjectList::read()
    in file db/functionObjects/functionObjectList/functionObjectList.C at line 1035
    Reading "system/controlDict" at line 2 to 41
    Entry 'dt' is not a dictionary
--> FOAM Warning : 
    From bool Foam::functionObjectList::read()
    in file db/functionObjects/functionObjectList/functionObjectList.C at line 1035
    Reading "system/controlDict" at line 2 to 41
    Entry 'tAvg' is not a dictionary
--> FOAM Warning : 
    From bool Foam::functionObjectList::read()
    in file db/functionObjects/functionObjectList/functionObjectList.C at line 1035
    Reading "system/controlDict" at line 2 to 41
    Entry 'tEnd' is not a dictionary
--> FOAM Warning : 
    From bool Foam::functionObjectList::read()
    in file db/functionObjects/functionObjectList/functionObjectList.C at line 1035
    Reading "system/controlDict" at line 2 to 41
    Entry 'writeInterval_' is not a dictionary
--> FOAM Warning : 
    From bool Foam::functionObjectList::read()
    in file db/functionObjects/functionObjectList/functionObjectList.C at line 1035
    Reading "system/controlDict" at line 2 to 41
    Entry 'nCores' is not a dictionary
--> FOAM Warning : 
    From bool Foam::functionObjectList::read()
    in file db/functionObjects/functionObjectList/functionObjectList.C at line 1035
    Reading "system/controlDict" at line 2 to 41
    Entry 'interpScheme' is not a dictionary
--> FOAM Warning : 
    From bool Foam::functionObjectList::read()
    in file db/functionObjects/functionObjectList/functionObjectList.C at line 1035
    Reading "system/controlDict" at line 2 to 41
    Entry 'probeField' is not a dictionary
wallShearStress wallShearStress:
    processing wall patches: 
        Windsor_Body
        CFDWT_Floor
        Windsor_Pins
        Windsor_Base
        Windsor_Body_2
        CFDWT_Floor_2
        Windsor_Pins_2
        Windsor_Base_2
        Windsor_Body_3
        CFDWT_Floor_3
        Windsor_Pins_3
        Windsor_Base_3
        Windsor_Body_4
        CFDWT_Floor_4
        Windsor_Pins_4
        Windsor_Base_4

pressure calc_cp:
    Operating mode: staticCoeff
    Not including hydrostatic effects

forceCoeffs forceCoeffsAll:
    rho: rhoInf
    Freestream density (rhoInf) set to 1
    Not including porosity effects
    magUInf: 40
    lRef   : 0.6375
    Aref   : 0.1124
    rhoInf : 1
    Selecting all coefficients
    - Drag force: Cd
    - Drag force front: Cd(f)
    - Drag force rear: Cd(r)
    - Lift force: Cl
    - Lift force front: Cl(f)
    - Lift force rear: Cl(r)
    - Pitch moment: CmPitch
    - Roll moment: CmRoll
    - Yaw moment: CmYaw
    - Side force: Cs
    - Side force front: Cs(f)
    - Side force rear: Cs(r)


forceCoeffs dragCoeffBase:
    rho: rhoInf
    Freestream density (rhoInf) set to 1
    Not including porosity effects
    magUInf: 40
    lRef   : 0.6375
    Aref   : 0.1124
    rhoInf : 1
    Selecting coefficients:
    - Drag force: Cd


Time = 1

velocityDampingConstraint velocityDamping damped 0 (0%) of cells, with max limit 300
smoothSolver:  Solving for Ux, Initial residual = 0.9999999999996497, Final residual = 0.08495806904865345, No Iterations 3
smoothSolver:  Solving for Uy, Initial residual = 1, Final residual = 0.06547110637433885, No Iterations 6
smoothSolver:  Solving for Uz, Initial residual = 1, Final residual = 0.01751034399753749, No Iterations 2
[OGL LOG][lduLduBase.H:119] Initialising OGL
	OGL commit:  e75313f+
	Branch: dev 
	Build type: Debug
	Ginkgo version: 1.8.0 ( develop)
	Ginkgo commit: sparse-communicator
	MPI is GPU aware: 1
	Forces host buffer based communication: 0
	CPU ranks per GPU: 1
	Matrix format: Coo
	End OGL_INFO
[OGL LOG][Proc: 0]: global_index_init: 0.058 [ms]
[OGL LOG][Proc: 0]p_local_cols: call_init: 0.719 [ms]
[OGL LOG][Proc: 0]p_local_rows: call_init: 0.169 [ms]
[OGL LOG][Proc: 0]p_local_ldu_map: call_init: 0.233 [ms]
[OGL LOG][Proc: 0]p_local_coeffs: call_init: 4.304 [ms]
[OGL LOG][Proc: 0]p_non_local_cols: call_init: 0.286 [ms]
[OGL LOG][Proc: 0]p_non_local_rows: call_init: 0.392 [ms]
[OGL LOG][Proc: 0]p_non_local_ldu_map: call_init: 0.241 [ms]
[OGL LOG][Proc: 0]p_non_local_coeffs: call_init: 0.412 [ms]
[OGL LOG][Proc: 0]p: init_local_sparsity_pattern: 250811.753 [ms]
[OGL LOG][Proc: 0]p: init_non_local_sparsity_pattern: 28782.965 [ms]
[OGL LOG][Proc: 0]p: update_local_matrix_data: 263.475 [ms]
[OGL LOG][Proc: 0]p: update_non_local_matrix_data: 0.945 [ms]
[OGL LOG][Proc: 0]device_partition: call_init: 0.214 [ms]
[OGL LOG][Proc: 0]p_matrix: call_init: 513.353 [ms]
[OGL LOG][Proc: 0]p_rhs: call_init: 14.834 [ms]
[OGL LOG][Proc: 0]p_solution: call_init: 15.102 [ms]
[OGL LOG][Preconditioner.H:271] Generate preconditioner GISAI SparsityPower 1
[OGL LOG][Proc: 0]p: init_precond: 461.968 [ms]
[OGL LOG][StoppingCriterion.H:239] Creating stopping criterion with minIter 0 frequency 1
[OGL LOG][Proc: 0]p: generate_solver: 0.244 [ms]
[OGL LOG][Proc: 0]p: solve: 3212.141 [ms]
[OGL LOG][Proc: 0]p: copy_x_back: 17.619 [ms]
[OGL LOG][lduLduBase.H:330] 
Statistics:
	Time per iteration: 3208 [mu s]
	Time per residual norm calculation: 3135.000000 [mu s]
	Time per iteration and DOF: 0.127158 [ns]
	Retrieve results bandwidth 2.866000 [GByte/s]
[OGL LOG][Proc: 0]p: solve_multi_gpu: 4285.382 [ms]
GISAIcudaGKOCG:  Solving for p, Initial residual = 1.000000000002135, Final residual = 1.00000000038153, No Iterations 1001
time step continuity errors : sum local = 0.3634065170291433, global = -0.0009481877790406827, cumulative = -0.0009481877790406827
smoothSolver:  Solving for nuTilda, Initial residual = 0.9999999998795722, Final residual = 0.05068139088533928, No Iterations 3
ExecutionTime = 355.68 s  ClockTime = 358 s

--> FOAM Warning : 
    From virtual bool Foam::functionObjects::fieldSelection::checkSelection()
    in file functionObjects/fieldSelections/fieldSelection/fieldSelection.C at line 166
    Field k not found
--> FOAM Warning : 
    From virtual bool Foam::functionObjects::fieldSelection::checkSelection()
    in file functionObjects/fieldSelections/fieldSelection/fieldSelection.C at line 166
    Field gammaInt not found
--> FOAM Warning : 
    From virtual bool Foam::functionObjects::fieldSelection::checkSelection()
    in file functionObjects/fieldSelections/fieldSelection/fieldSelection.C at line 166
    Field omega not found
--> FOAM Warning : 
    From virtual bool Foam::functionObjects::fieldSelection::checkSelection()
    in file functionObjects/fieldSelections/fieldSelection/fieldSelection.C at line 166
    Field ReThetat not found
--> FOAM Warning : 
    From virtual bool Foam::functionObjects::fieldSelection::checkSelection()
    in file functionObjects/fieldSelections/fieldSelection/fieldSelection.C at line 166
    Field epsilon not found
--> FOAM Warning : 
    From virtual bool Foam::functionObjects::solverFieldSelection::updateSelection()
    in file functionObjects/fieldSelections/solverFieldSelection/solverFieldSelection.C at line 85
    Valid solver fields are: 3(U nuTilda p)Time = 2

velocityDampingConstraint velocityDamping damped 0 (0%) of cells, with max limit 300
smoothSolver:  Solving for Ux, Initial residual = 0.06059928222543216, Final residual = 0.004957380160663992, No Iterations 5
smoothSolver:  Solving for Uy, Initial residual = 0.08039444536417503, Final residual = 0.007794886784368711, No Iterations 2
smoothSolver:  Solving for Uz, Initial residual = 0.1043067304333798, Final residual = 0.007931011508104328, No Iterations 2
[OGL LOG][Proc: 0]: global_index_init: 0.017 [ms]
[OGL LOG][Proc: 0]p_local_coeffs: call_update: 0.001 [ms]
[OGL LOG][Proc: 0]p_non_local_coeffs: call_update: 0 [ms]
[OGL LOG][Proc: 0]p: update_local_matrix_data: 240.129 [ms]
[OGL LOG][Proc: 0]p: update_non_local_matrix_data: 0.871 [ms]
[OGL LOG][Proc: 0]p_matrix: call_update: 4.151 [ms]
[OGL LOG][Proc: 0]p_rhs: call_update: 14.825 [ms]
[OGL LOG][Preconditioner.H:271] Generate preconditioner GISAI SparsityPower 1
[OGL LOG][Proc: 0]p: init_precond: 458.706 [ms]
[OGL LOG][StoppingCriterion.H:239] Creating stopping criterion with minIter 600 frequency 20
[OGL LOG][Proc: 0]p: generate_solver: 0.019 [ms]
[OGL LOG][Proc: 0]p: solve: 2959.297 [ms]
[OGL LOG][Proc: 0]p: copy_x_back: 17.828 [ms]
[OGL LOG][lduLduBase.H:330] 
Statistics:
	Time per iteration: 2956 [mu s]
	Time per residual norm calculation: 173.000000 [mu s]
	Time per iteration and DOF: 0.117169 [ns]
	Retrieve results bandwidth 2.833000 [GByte/s]
[OGL LOG][Proc: 0]p: solve_multi_gpu: 3458.058 [ms]
GISAIcudaGKOCG:  Solving for p, Initial residual = 0.9999999996302721, Final residual = 0.9999999999008662, No Iterations 1001
time step continuity errors : sum local = 2.038934110636299, global = -0.001756535660072334, cumulative = -0.002704723439113017
smoothSolver:  Solving for nuTilda, Initial residual = 0.2809068113700895, Final residual = 0.02195183009939028, No Iterations 2
ExecutionTime = 384.97 s  ClockTime = 387 s

Time = 3

velocityDampingConstraint velocityDamping damped 8380 (0.03%) of cells, with max limit 300
smoothSolver:  Solving for Ux, Initial residual = 0.1273415732710352, Final residual = 0.007157442972087267, No Iterations 10
smoothSolver:  Solving for Uy, Initial residual = 0.1071880560863788, Final residual = 0.008181208704244726, No Iterations 11
smoothSolver:  Solving for Uz, Initial residual = 0.1276133492426767, Final residual = 0.01178146856589215, No Iterations 10
[OGL LOG][Proc: 0]: global_index_init: 0.021 [ms]
[OGL LOG][Proc: 0]p_local_coeffs: call_update: 0 [ms]
[OGL LOG][Proc: 0]p_non_local_coeffs: call_update: 0 [ms]
[OGL LOG][Proc: 0]p: update_local_matrix_data: 240.062 [ms]
[OGL LOG][Proc: 0]p: update_non_local_matrix_data: 0.8070000000000001 [ms]
[OGL LOG][Proc: 0]p_matrix: call_update: 4.344 [ms]
[OGL LOG][Proc: 0]p_rhs: call_update: 14.93 [ms]
[OGL LOG][Preconditioner.H:271] Generate preconditioner GISAI SparsityPower 1
[OGL LOG][Proc: 0]p: init_precond: 422.432 [ms]
[OGL LOG][StoppingCriterion.H:239] Creating stopping criterion with minIter 600 frequency 4
[OGL LOG][Proc: 0]p: generate_solver: 0.021 [ms]
[OGL LOG][Proc: 0]p: solve: 3004.227 [ms]
[OGL LOG][Proc: 0]p: copy_x_back: 19.207 [ms]
[OGL LOG][lduLduBase.H:330] 
Statistics:
	Time per iteration: 3001 [mu s]
	Time per residual norm calculation: 174.000000 [mu s]
	Time per iteration and DOF: 0.118953 [ns]
	Retrieve results bandwidth 2.629000 [GByte/s]
[OGL LOG][Proc: 0]p: solve_multi_gpu: 3468.968 [ms]
GISAIcudaGKOCG:  Solving for p, Initial residual = 0.9999999995033532, Final residual = 0.9999999997315282, No Iterations 1001
time step continuity errors : sum local = 6.877943647319388, global = -0.002395411860958002, cumulative = -0.005100135300071019
smoothSolver:  Solving for nuTilda, Initial residual = 0.3488958921958171, Final residual = 0.02676177107291595, No Iterations 1
ExecutionTime = 418.18 s  ClockTime = 420 s

Time = 4

velocityDampingConstraint velocityDamping damped 114796 (0.46%) of cells, with max limit 300
smoothSolver:  Solving for Ux, Initial residual = 0.3941286274020671, Final residual = 0.01855066778443968, No Iterations 1
smoothSolver:  Solving for Uy, Initial residual = 0.3869284127404065, Final residual = 0.02803143637834493, No Iterations 1
smoothSolver:  Solving for Uz, Initial residual = 0.4070454985754067, Final residual = 0.02044433204183542, No Iterations 2
[OGL LOG][Proc: 0]: global_index_init: 0.016 [ms]
[OGL LOG][Proc: 0]p_local_coeffs: call_update: 0 [ms]
[OGL LOG][Proc: 0]p_non_local_coeffs: call_update: 0 [ms]
[OGL LOG][Proc: 0]p: update_local_matrix_data: 240.604 [ms]
[OGL LOG][Proc: 0]p: update_non_local_matrix_data: 0.919 [ms]
[OGL LOG][Proc: 0]p_matrix: call_update: 3.91 [ms]
[OGL LOG][Proc: 0]p_rhs: call_update: 15.081 [ms]
[OGL LOG][Preconditioner.H:271] Generate preconditioner GISAI SparsityPower 1
[OGL LOG][Proc: 0]p: init_precond: 424.441 [ms]
[OGL LOG][StoppingCriterion.H:239] Creating stopping criterion with minIter 600 frequency 4
[OGL LOG][Proc: 0]p: generate_solver: 0.016 [ms]
[OGL LOG][Proc: 0]p: solve: 3005.826 [ms]
[OGL LOG][Proc: 0]p: copy_x_back: 17.838 [ms]
[OGL LOG][lduLduBase.H:330] 
Statistics:
	Time per iteration: 3002 [mu s]
	Time per residual norm calculation: 164.000000 [mu s]
	Time per iteration and DOF: 0.118992 [ns]
	Retrieve results bandwidth 2.831000 [GByte/s]
[OGL LOG][Proc: 0]p: solve_multi_gpu: 3469.654 [ms]
GISAIcudaGKOCG:  Solving for p, Initial residual = 0.999999999587603, Final residual = 0.9999999995841504, No Iterations 1001
time step continuity errors : sum local = 19.66020475386148, global = -0.002749562809119351, cumulative = -0.007849698109190371
smoothSolver:  Solving for nuTilda, Initial residual = 0.1915666188586371, Final residual = 0.01333937542441093, No Iterations 11
ExecutionTime = 448.38 s  ClockTime = 451 s

Time = 5

velocityDampingConstraint velocityDamping damped 125320 (0.5%) of cells, with max limit 300
smoothSolver:  Solving for Ux, Initial residual = 0.4495029071897389, Final residual = 0.03117705287701829, No Iterations 6
smoothSolver:  Solving for Uy, Initial residual = 0.4334286916399944, Final residual = 0.02390321297026891, No Iterations 8
smoothSolver:  Solving for Uz, Initial residual = 0.4402216536740298, Final residual = 0.02112064052362793, No Iterations 7
[OGL LOG][Proc: 0]: global_index_init: 0.017 [ms]
[OGL LOG][Proc: 0]p_local_coeffs: call_update: 0 [ms]
[OGL LOG][Proc: 0]p_non_local_coeffs: call_update: 0 [ms]
[OGL LOG][Proc: 0]p: update_local_matrix_data: 239.968 [ms]
[OGL LOG][Proc: 0]p: update_non_local_matrix_data: 0.913 [ms]
[OGL LOG][Proc: 0]p_matrix: call_update: 3.951 [ms]
[OGL LOG][Proc: 0]p_rhs: call_update: 15.105 [ms]
[OGL LOG][Preconditioner.H:271] Generate preconditioner GISAI SparsityPower 1
[OGL LOG][Proc: 0]p: init_precond: 439.94 [ms]
[OGL LOG][StoppingCriterion.H:239] Creating stopping criterion with minIter 600 frequency 4
[OGL LOG][Proc: 0]p: generate_solver: 0.021 [ms]
[OGL LOG][Proc: 0]p: solve: 2987.591 [ms]
[OGL LOG][Proc: 0]p: copy_x_back: 17.811 [ms]
[OGL LOG][lduLduBase.H:330] 
Statistics:
	Time per iteration: 2984 [mu s]
	Time per residual norm calculation: 171.000000 [mu s]
	Time per iteration and DOF: 0.118279 [ns]
	Retrieve results bandwidth 2.835000 [GByte/s]
[OGL LOG][Proc: 0]p: solve_multi_gpu: 3467.276 [ms]
GISAIcudaGKOCG:  Solving for p, Initial residual = 0.9999999998175315, Final residual = 0.9999999998854996, No Iterations 1001
time step continuity errors : sum local = 79.1717285815468, global = -0.003371305926363119, cumulative = -0.01122100403555349
smoothSolver:  Solving for nuTilda, Initial residual = 0.3817088229754229, Final residual = 0.02935956245708334, No Iterations 5
ExecutionTime = 480.68 s  ClockTime = 483 s

Time = 6

velocityDampingConstraint velocityDamping damped 173812 (0.6900000000000001%) of cells, with max limit 300
smoothSolver:  Solving for Ux, Initial residual = 0.4723047537429498, Final residual = 0.01722212284769682, No Iterations 1
smoothSolver:  Solving for Uy, Initial residual = 0.4660436307715754, Final residual = 0.01149573925092735, No Iterations 1
smoothSolver:  Solving for Uz, Initial residual = 0.4756785667787963, Final residual = 0.02911067575383735, No Iterations 2
[OGL LOG][Proc: 0]: global_index_init: 0.017 [ms]
[OGL LOG][Proc: 0]p_local_coeffs: call_update: 0 [ms]
[OGL LOG][Proc: 0]p_non_local_coeffs: call_update: 0 [ms]
[OGL LOG][Proc: 0]p: update_local_matrix_data: 239.805 [ms]
[OGL LOG][Proc: 0]p: update_non_local_matrix_data: 0.8159999999999999 [ms]
[OGL LOG][Proc: 0]p_matrix: call_update: 3.973 [ms]
[OGL LOG][Proc: 0]p_rhs: call_update: 15.316 [ms]
[OGL LOG][Preconditioner.H:271] Generate preconditioner GISAI SparsityPower 1
[OGL LOG][Proc: 0]p: init_precond: 438.121 [ms]
[OGL LOG][StoppingCriterion.H:239] Creating stopping criterion with minIter 600 frequency 4
[OGL LOG][Proc: 0]p: generate_solver: 0.018 [ms]
[OGL LOG][Proc: 0]p: solve: 2982.814 [ms]
[OGL LOG][Proc: 0]p: copy_x_back: 17.893 [ms]
[OGL LOG][lduLduBase.H:330] 
Statistics:
	Time per iteration: 2979 [mu s]
	Time per residual norm calculation: 163.000000 [mu s]
	Time per iteration and DOF: 0.118081 [ns]
	Retrieve results bandwidth 2.822000 [GByte/s]
[OGL LOG][Proc: 0]p: solve_multi_gpu: 3461.181 [ms]
GISAIcudaGKOCG:  Solving for p, Initial residual = 0.9999999997318118, Final residual = 0.9999999997496064, No Iterations 1001
time step continuity errors : sum local = 93.65411364026502, global = -0.003700675439173829, cumulative = -0.01492167947472732
smoothSolver:  Solving for nuTilda, Initial residual = 0.2953544553020018, Final residual = 0.02066914853322853, No Iterations 8
ExecutionTime = 510.42 s  ClockTime = 513 s

Time = 7

velocityDampingConstraint velocityDamping damped 186620 (0.74%) of cells, with max limit 300
smoothSolver:  Solving for Ux, Initial residual = 0.5108277372283083, Final residual = 0.02836279534224151, No Iterations 2
smoothSolver:  Solving for Uy, Initial residual = 0.4930733086164582, Final residual = 0.04710600604647514, No Iterations 2
smoothSolver:  Solving for Uz, Initial residual = 0.5135714334576862, Final residual = 0.03445124986691738, No Iterations 2
[OGL LOG][Proc: 0]: global_index_init: 0.017 [ms]
[OGL LOG][Proc: 0]p_local_coeffs: call_update: 0 [ms]
[OGL LOG][Proc: 0]p_non_local_coeffs: call_update: 0 [ms]
[OGL LOG][Proc: 0]p: update_local_matrix_data: 240.562 [ms]
[OGL LOG][Proc: 0]p: update_non_local_matrix_data: 0.949 [ms]
[OGL LOG][Proc: 0]p_matrix: call_update: 3.591 [ms]
[OGL LOG][Proc: 0]p_rhs: call_update: 15.725 [ms]
[OGL LOG][Preconditioner.H:271] Generate preconditioner GISAI SparsityPower 1
[OGL LOG][Proc: 0]p: init_precond: 450.704 [ms]
[OGL LOG][StoppingCriterion.H:239] Creating stopping criterion with minIter 600 frequency 4
[OGL LOG][Proc: 0]p: generate_solver: 0.013 [ms]
[OGL LOG][Proc: 0]p: solve: 2979.265 [ms]
[OGL LOG][Proc: 0]p: copy_x_back: 18.429 [ms]
[OGL LOG][lduLduBase.H:330] 
Statistics:
	Time per iteration: 2976 [mu s]
	Time per residual norm calculation: 173.000000 [mu s]
	Time per iteration and DOF: 0.117962 [ns]
	Retrieve results bandwidth 2.740000 [GByte/s]
[OGL LOG][Proc: 0]p: solve_multi_gpu: 3470.5 [ms]
GISAIcudaGKOCG:  Solving for p, Initial residual = 0.9999999997895105, Final residual = 0.9999999997904686, No Iterations 1001
time step continuity errors : sum local = 191.3281661865571, global = -0.004147643094733351, cumulative = -0.01906932256946067
smoothSolver:  Solving for nuTilda, Initial residual = 0.273157265343181, Final residual = 0.0153797105406886, No Iterations 10
ExecutionTime = 540.9400000000001 s  ClockTime = 543 s

Time = 8

velocityDampingConstraint velocityDamping damped 188696 (0.75%) of cells, with max limit 300
smoothSolver:  Solving for Ux, Initial residual = 0.4970659614729497, Final residual = 0.01748877067086204, No Iterations 3
smoothSolver:  Solving for Uy, Initial residual = 0.5256673729991593, Final residual = 0.02781370262974312, No Iterations 3
smoothSolver:  Solving for Uz, Initial residual = 0.4933673984097374, Final residual = 0.01883490780095606, No Iterations 3
[OGL LOG][Proc: 0]: global_index_init: 0.018 [ms]
[OGL LOG][Proc: 0]p_local_coeffs: call_update: 0 [ms]
[OGL LOG][Proc: 0]p_non_local_coeffs: call_update: 0 [ms]
[OGL LOG][Proc: 0]p: update_local_matrix_data: 240.532 [ms]
[OGL LOG][Proc: 0]p: update_non_local_matrix_data: 0.92 [ms]
[OGL LOG][Proc: 0]p_matrix: call_update: 4.03 [ms]
[OGL LOG][Proc: 0]p_rhs: call_update: 15.331 [ms]
[OGL LOG][Preconditioner.H:271] Generate preconditioner GISAI SparsityPower 1
[OGL LOG][Proc: 0]p: init_precond: 455.366 [ms]
[OGL LOG][StoppingCriterion.H:239] Creating stopping criterion with minIter 600 frequency 4
[OGL LOG][Proc: 0]p: generate_solver: 0.019 [ms]
[OGL LOG][Proc: 0]p: solve: 2972.712 [ms]
[OGL LOG][Proc: 0]p: copy_x_back: 17.914 [ms]
[OGL LOG][lduLduBase.H:330] 
Statistics:
	Time per iteration: 2969 [mu s]
	Time per residual norm calculation: 172.000000 [mu s]
	Time per iteration and DOF: 0.117684 [ns]
	Retrieve results bandwidth 2.819000 [GByte/s]
[OGL LOG][Proc: 0]p: solve_multi_gpu: 3468.707 [ms]
GISAIcudaGKOCG:  Solving for p, Initial residual = 0.9999999999022792, Final residual = 0.9999999998995954, No Iterations 1001
time step continuity errors : sum local = 366.5629047289367, global = -0.004654767225744548, cumulative = -0.02372408979520522
smoothSolver:  Solving for nuTilda, Initial residual = 0.4949160645644833, Final residual = 0.03197592065751712, No Iterations 8
ExecutionTime = 571.79 s  ClockTime = 574 s

Time = 9

velocityDampingConstraint velocityDamping damped 204320 (0.8100000000000001%) of cells, with max limit 300
smoothSolver:  Solving for Ux, Initial residual = 0.4999200773012857, Final residual = 0.03105726248685999, No Iterations 3
smoothSolver:  Solving for Uy, Initial residual = 0.4952872289599126, Final residual = 0.03173472948921682, No Iterations 3
smoothSolver:  Solving for Uz, Initial residual = 0.5950470347046086, Final residual = 0.04583150582154166, No Iterations 1
[OGL LOG][Proc: 0]: global_index_init: 0.019 [ms]
[OGL LOG][Proc: 0]p_local_coeffs: call_update: 0 [ms]
[OGL LOG][Proc: 0]p_non_local_coeffs: call_update: 0 [ms]
[OGL LOG][Proc: 0]p: update_local_matrix_data: 240.002 [ms]
[OGL LOG][Proc: 0]p: update_non_local_matrix_data: 0.795 [ms]
[OGL LOG][Proc: 0]p_matrix: call_update: 2.901 [ms]
[OGL LOG][Proc: 0]p_rhs: call_update: 16.272 [ms]
[OGL LOG][Preconditioner.H:271] Generate preconditioner GISAI SparsityPower 1
[OGL LOG][Proc: 0]p: init_precond: 424.489 [ms]
[OGL LOG][StoppingCriterion.H:239] Creating stopping criterion with minIter 600 frequency 4
[OGL LOG][Proc: 0]p: generate_solver: 0.021 [ms]
[OGL LOG][Proc: 0]p: solve: 2976.444 [ms]
[OGL LOG][Proc: 0]p: copy_x_back: 18.026 [ms]
[OGL LOG][lduLduBase.H:330] 
Statistics:
	Time per iteration: 2973 [mu s]
	Time per residual norm calculation: 172.000000 [mu s]
	Time per iteration and DOF: 0.117843 [ns]
	Retrieve results bandwidth 2.801000 [GByte/s]
[OGL LOG][Proc: 0]p: solve_multi_gpu: 3441.185 [ms]
GISAIcudaGKOCG:  Solving for p, Initial residual = 0.9999999998932814, Final residual = 0.9999999998964941, No Iterations 1001
time step continuity errors : sum local = 368.3643857213417, global = -0.005144489421815751, cumulative = -0.02886857921702097
smoothSolver:  Solving for nuTilda, Initial residual = 0.3011365521930274, Final residual = 0.02185500270878873, No Iterations 4
ExecutionTime = 601.38 s  ClockTime = 604 s

Time = 10

velocityDampingConstraint velocityDamping damped 208752 (0.8300000000000001%) of cells, with max limit 300
smoothSolver:  Solving for Ux, Initial residual = 0.5103801656748458, Final residual = 0.04717036002741523, No Iterations 2
smoothSolver:  Solving for Uy, Initial residual = 0.5083533314911202, Final residual = 0.04960116990498727, No Iterations 2
smoothSolver:  Solving for Uz, Initial residual = 0.5029875620041919, Final residual = 0.04794359794723303, No Iterations 2
[OGL LOG][Proc: 0]: global_index_init: 0.017 [ms]
[OGL LOG][Proc: 0]p_local_coeffs: call_update: 0 [ms]
[OGL LOG][Proc: 0]p_non_local_coeffs: call_update: 0 [ms]
[OGL LOG][Proc: 0]p: update_local_matrix_data: 240.091 [ms]
[OGL LOG][Proc: 0]p: update_non_local_matrix_data: 0.841 [ms]
[OGL LOG][Proc: 0]p_matrix: call_update: 4.101 [ms]
[OGL LOG][Proc: 0]p_rhs: call_update: 15.22 [ms]
[OGL LOG][Preconditioner.H:271] Generate preconditioner GISAI SparsityPower 1
[OGL LOG][Proc: 0]p: init_precond: 451.046 [ms]
[OGL LOG][StoppingCriterion.H:239] Creating stopping criterion with minIter 600 frequency 4
[OGL LOG][Proc: 0]p: generate_solver: 0.019 [ms]
[OGL LOG][Proc: 0]p: solve: 2976.325 [ms]
[OGL LOG][Proc: 0]p: copy_x_back: 18.275 [ms]
[OGL LOG][lduLduBase.H:330] 
Statistics:
	Time per iteration: 2973 [mu s]
	Time per residual norm calculation: 183.000000 [mu s]
	Time per iteration and DOF: 0.117843 [ns]
	Retrieve results bandwidth 2.763000 [GByte/s]
[OGL LOG][Proc: 0]p: solve_multi_gpu: 3468.536 [ms]
GISAIcudaGKOCG:  Solving for p, Initial residual = 0.9999999998381188, Final residual = 0.9999999998377888, No Iterations 1001
time step continuity errors : sum local = 235.9768969642667, global = -0.005567274200082957, cumulative = -0.03443585341710393
smoothSolver:  Solving for nuTilda, Initial residual = 0.2581806771676398, Final residual = 0.0193678840776702, No Iterations 4
ExecutionTime = 632.6900000000001 s  ClockTime = 635 s

Time = 11

velocityDampingConstraint velocityDamping damped 215724 (0.86%) of cells, with max limit 300
smoothSolver:  Solving for Ux, Initial residual = 0.5302093311833201, Final residual = 0.04137139701169717, No Iterations 2
smoothSolver:  Solving for Uy, Initial residual = 0.5394929126169007, Final residual = 0.05208905835868655, No Iterations 2
smoothSolver:  Solving for Uz, Initial residual = 0.5587960011483738, Final residual = 0.03767233963114865, No Iterations 2
[OGL LOG][Proc: 0]: global_index_init: 0.021 [ms]
[OGL LOG][Proc: 0]p_local_coeffs: call_update: 0 [ms]
[OGL LOG][Proc: 0]p_non_local_coeffs: call_update: 0 [ms]
[OGL LOG][Proc: 0]p: update_local_matrix_data: 239.712 [ms]
[OGL LOG][Proc: 0]p: update_non_local_matrix_data: 0.768 [ms]
[OGL LOG][Proc: 0]p_matrix: call_update: 3.927 [ms]
[OGL LOG][Proc: 0]p_rhs: call_update: 15.233 [ms]
[OGL LOG][Preconditioner.H:271] Generate preconditioner GISAI SparsityPower 1
[OGL LOG][Proc: 0]p: init_precond: 454.929 [ms]
[OGL LOG][StoppingCriterion.H:239] Creating stopping criterion with minIter 600 frequency 5
[OGL LOG][Proc: 0]p: generate_solver: 0.018 [ms]
[OGL LOG][Proc: 0]p: solve: 2964.422 [ms]
[OGL LOG][Proc: 0]p: copy_x_back: 18.573 [ms]
[OGL LOG][lduLduBase.H:330] 
Statistics:
	Time per iteration: 2961 [mu s]
	Time per residual norm calculation: 173.000000 [mu s]
	Time per iteration and DOF: 0.117367 [ns]
	Retrieve results bandwidth 2.719000 [GByte/s]
[OGL LOG][Proc: 0]p: solve_multi_gpu: 3460.673 [ms]
GISAIcudaGKOCG:  Solving for p, Initial residual = 0.999999999840716, Final residual = 0.9999999997811703, No Iterations 1001
time step continuity errors : sum local = 192.3411569654314, global = -0.005988960840619403, cumulative = -0.04042481425772333
smoothSolver:  Solving for nuTilda, Initial residual = 0.2498650802934515, Final residual = 0.02290901251057831, No Iterations 5
ExecutionTime = 662.48 s  ClockTime = 665 s

Time = 12

velocityDampingConstraint velocityDamping damped 215252 (0.85%) of cells, with max limit 300
smoothSolver:  Solving for Ux, Initial residual = 0.5094871612499526, Final residual = 0.01576077599120171, No Iterations 3
smoothSolver:  Solving for Uy, Initial residual = 0.536373513986838, Final residual = 0.02322011525722991, No Iterations 3
smoothSolver:  Solving for Uz, Initial residual = 0.5232989612299683, Final residual = 0.02439553273496773, No Iterations 3
[OGL LOG][Proc: 0]: global_index_init: 0.016 [ms]
[OGL LOG][Proc: 0]p_local_coeffs: call_update: 0 [ms]
[OGL LOG][Proc: 0]p_non_local_coeffs: call_update: 0 [ms]
[OGL LOG][Proc: 0]p: update_local_matrix_data: 240.145 [ms]
[OGL LOG][Proc: 0]p: update_non_local_matrix_data: 0.897 [ms]
[OGL LOG][Proc: 0]p_matrix: call_update: 4.127 [ms]
[OGL LOG][Proc: 0]p_rhs: call_update: 15.282 [ms]
[OGL LOG][Preconditioner.H:271] Generate preconditioner GISAI SparsityPower 1
[OGL LOG][Proc: 0]p: init_precond: 456.147 [ms]
[OGL LOG][StoppingCriterion.H:239] Creating stopping criterion with minIter 600 frequency 4
[OGL LOG][Proc: 0]p: generate_solver: 0.016 [ms]
[OGL LOG][Proc: 0]p: solve: 2968.107 [ms]
[OGL LOG][Proc: 0]p: copy_x_back: 18.184 [ms]
[OGL LOG][lduLduBase.H:330] 
Statistics:
	Time per iteration: 2965 [mu s]
	Time per residual norm calculation: 171.000000 [mu s]
	Time per iteration and DOF: 0.117526 [ns]
	Retrieve results bandwidth 2.777000 [GByte/s]
[OGL LOG][Proc: 0]p: solve_multi_gpu: 3463.903 [ms]
GISAIcudaGKOCG:  Solving for p, Initial residual = 0.9999999997927509, Final residual = 0.9999999997369443, No Iterations 1001
time step continuity errors : sum local = 190.6457654773033, global = -0.006475619888830649, cumulative = -0.04690043414655398
smoothSolver:  Solving for nuTilda, Initial residual = 0.2414579818688085, Final residual = 0.01797277497260012, No Iterations 5
ExecutionTime = 692.6799999999999 s  ClockTime = 695 s

Time = 13

velocityDampingConstraint velocityDamping damped 208872 (0.8300000000000001%) of cells, with max limit 300
smoothSolver:  Solving for Ux, Initial residual = 0.5486877944055559, Final residual = 0.03305138399076128, No Iterations 2
smoothSolver:  Solving for Uy, Initial residual = 0.5390198539044472, Final residual = 0.01847345919154611, No Iterations 3
smoothSolver:  Solving for Uz, Initial residual = 0.5165649597567559, Final residual = 0.05065803534292745, No Iterations 2
[OGL LOG][Proc: 0]: global_index_init: 0.017 [ms]
[OGL LOG][Proc: 0]p_local_coeffs: call_update: 0 [ms]
[OGL LOG][Proc: 0]p_non_local_coeffs: call_update: 0 [ms]
[OGL LOG][Proc: 0]p: update_local_matrix_data: 240.919 [ms]
[OGL LOG][Proc: 0]p: update_non_local_matrix_data: 0.886 [ms]
[OGL LOG][Proc: 0]p_matrix: call_update: 3.941 [ms]
[OGL LOG][Proc: 0]p_rhs: call_update: 15.032 [ms]
[OGL LOG][Preconditioner.H:271] Generate preconditioner GISAI SparsityPower 1
[OGL LOG][Proc: 0]p: init_precond: 446.83 [ms]
[OGL LOG][StoppingCriterion.H:239] Creating stopping criterion with minIter 600 frequency 4
[OGL LOG][Proc: 0]p: generate_solver: 0.021 [ms]
[OGL LOG][Proc: 0]p: solve: 2968.299 [ms]
[OGL LOG][Proc: 0]p: copy_x_back: 18.19 [ms]
[OGL LOG][lduLduBase.H:330] 
Statistics:
	Time per iteration: 2965 [mu s]
	Time per residual norm calculation: 177.000000 [mu s]
	Time per iteration and DOF: 0.117526 [ns]
	Retrieve results bandwidth 2.776000 [GByte/s]
[OGL LOG][Proc: 0]p: solve_multi_gpu: 3455.678 [ms]
GISAIcudaGKOCG:  Solving for p, Initial residual = 0.9999999996983129, Final residual = 0.9999999997595331, No Iterations 1001
time step continuity errors : sum local = 197.5950646094012, global = -0.00688887392681549, cumulative = -0.05378930807336947
smoothSolver:  Solving for nuTilda, Initial residual = 0.2298364195315751, Final residual = 0.01373663708302409, No Iterations 5
ExecutionTime = 722.5 s  ClockTime = 725 s

Time = 14

velocityDampingConstraint velocityDamping damped 204477 (0.8100000000000001%) of cells, with max limit 300
smoothSolver:  Solving for Ux, Initial residual = 0.5202935604125152, Final residual = 0.01556650409827343, No Iterations 3
smoothSolver:  Solving for Uy, Initial residual = 0.5647654438338146, Final residual = 0.0190700305751918, No Iterations 3
smoothSolver:  Solving for Uz, Initial residual = 0.5155476324707554, Final residual = 0.01578857457551484, No Iterations 3
[OGL LOG][Proc: 0]: global_index_init: 0.016 [ms]
[OGL LOG][Proc: 0]p_local_coeffs: call_update: 0 [ms]
[OGL LOG][Proc: 0]p_non_local_coeffs: call_update: 0 [ms]
[OGL LOG][Proc: 0]p: update_local_matrix_data: 239.727 [ms]
[OGL LOG][Proc: 0]p: update_non_local_matrix_data: 0.8120000000000001 [ms]
[OGL LOG][Proc: 0]p_matrix: call_update: 3.055 [ms]
[OGL LOG][Proc: 0]p_rhs: call_update: 15.542 [ms]
[OGL LOG][Preconditioner.H:271] Generate preconditioner GISAI SparsityPower 1
[OGL LOG][Proc: 0]p: init_precond: 449.576 [ms]
[OGL LOG][StoppingCriterion.H:239] Creating stopping criterion with minIter 600 frequency 5
[OGL LOG][Proc: 0]p: generate_solver: 0.019 [ms]
[OGL LOG][Proc: 0]p: solve: 2960.338 [ms]
[OGL LOG][Proc: 0]p: copy_x_back: 17.813 [ms]
[OGL LOG][lduLduBase.H:330] 
Statistics:
	Time per iteration: 2957 [mu s]
	Time per residual norm calculation: 166.000000 [mu s]
	Time per iteration and DOF: 0.117209 [ns]
	Retrieve results bandwidth 2.835000 [GByte/s]
[OGL LOG][Proc: 0]p: solve_multi_gpu: 3449.353 [ms]
GISAIcudaGKOCG:  Solving for p, Initial residual = 0.9999999995414692, Final residual = 0.9999999995166333, No Iterations 1001
time step continuity errors : sum local = 177.3589403943747, global = -0.007365869866384938, cumulative = -0.06115517793975441
smoothSolver:  Solving for nuTilda, Initial residual = 0.1908724730378124, Final residual = 0.01148553536047518, No Iterations 6
ExecutionTime = 752.86 s  ClockTime = 756 s

Time = 15

velocityDampingConstraint velocityDamping damped 196584 (0.78%) of cells, with max limit 300
smoothSolver:  Solving for Ux, Initial residual = 0.525139549615308, Final residual = 0.04313776357499394, No Iterations 2
smoothSolver:  Solving for Uy, Initial residual = 0.5215263151399937, Final residual = 0.01443007206204499, No Iterations 3
smoothSolver:  Solving for Uz, Initial residual = 0.5560192270291808, Final residual = 0.02248968077050306, No Iterations 2
[OGL LOG][Proc: 0]: global_index_init: 0.016 [ms]
[OGL LOG][Proc: 0]p_local_coeffs: call_update: 0 [ms]
[OGL LOG][Proc: 0]p_non_local_coeffs: call_update: 0 [ms]
[OGL LOG][Proc: 0]p: update_local_matrix_data: 240.692 [ms]
[OGL LOG][Proc: 0]p: update_non_local_matrix_data: 0.892 [ms]
[OGL LOG][Proc: 0]p_matrix: call_update: 4 [ms]
[OGL LOG][Proc: 0]p_rhs: call_update: 15.206 [ms]
[OGL LOG][Preconditioner.H:271] Generate preconditioner GISAI SparsityPower 1
[OGL LOG][Proc: 0]p: init_precond: 428.472 [ms]
[OGL LOG][StoppingCriterion.H:239] Creating stopping criterion with minIter 600 frequency 4
[OGL LOG][Proc: 0]p: generate_solver: 0.014 [ms]
[OGL LOG][Proc: 0]p: solve: 2986.429 [ms]
[OGL LOG][Proc: 0]p: copy_x_back: 17.748 [ms]
[OGL LOG][lduLduBase.H:330] 
Statistics:
	Time per iteration: 2983 [mu s]
	Time per residual norm calculation: 179.000000 [mu s]
	Time per iteration and DOF: 0.118239 [ns]
	Retrieve results bandwidth 2.845000 [GByte/s]
[OGL LOG][Proc: 0]p: solve_multi_gpu: 3453.806 [ms]
GISAIcudaGKOCG:  Solving for p, Initial residual = 0.999999999458567, Final residual = 0.9999999994700668, No Iterations 1001
time step continuity errors : sum local = 175.3134163735591, global = -0.007770018027309683, cumulative = -0.06892519596706409
smoothSolver:  Solving for nuTilda, Initial residual = 0.2072534130447823, Final residual = 0.01732979392421555, No Iterations 3
ExecutionTime = 782.3099999999999 s  ClockTime = 785 s

Time = 16

velocityDampingConstraint velocityDamping damped 195429 (0.77%) of cells, with max limit 300
smoothSolver:  Solving for Ux, Initial residual = 0.5257154928237645, Final residual = 0.03343743305663798, No Iterations 3
smoothSolver:  Solving for Uy, Initial residual = 0.5306108307465458, Final residual = 0.04902508294923994, No Iterations 2
smoothSolver:  Solving for Uz, Initial residual = 0.4984082888449191, Final residual = 0.03231775472078585, No Iterations 2
[OGL LOG][Proc: 0]: global_index_init: 0.022 [ms]
[OGL LOG][Proc: 0]p_local_coeffs: call_update: 0 [ms]
[OGL LOG][Proc: 0]p_non_local_coeffs: call_update: 0 [ms]
[OGL LOG][Proc: 0]p: update_local_matrix_data: 239.576 [ms]
[OGL LOG][Proc: 0]p: update_non_local_matrix_data: 0.859 [ms]
[OGL LOG][Proc: 0]p_matrix: call_update: 4.163 [ms]
[OGL LOG][Proc: 0]p_rhs: call_update: 15.401 [ms]
[OGL LOG][Preconditioner.H:271] Generate preconditioner GISAI SparsityPower 1
[OGL LOG][Proc: 0]p: init_precond: 444.485 [ms]
[OGL LOG][StoppingCriterion.H:239] Creating stopping criterion with minIter 600 frequency 5
[OGL LOG][Proc: 0]p: generate_solver: 0.02 [ms]
[OGL LOG][Proc: 0]p: solve: 2968.021 [ms]
[OGL LOG][Proc: 0]p: copy_x_back: 17.926 [ms]
[OGL LOG][lduLduBase.H:330] 
Statistics:
	Time per iteration: 2965 [mu s]
	Time per residual norm calculation: 173.000000 [mu s]
	Time per iteration and DOF: 0.117526 [ns]
	Retrieve results bandwidth 2.817000 [GByte/s]
[OGL LOG][Proc: 0]p: solve_multi_gpu: 3452.992 [ms]
GISAIcudaGKOCG:  Solving for p, Initial residual = 0.999999999670002, Final residual = 0.9999999996801489, No Iterations 1001
time step continuity errors : sum local = 268.3515459255249, global = -0.008236806432828645, cumulative = -0.07716200239989274
smoothSolver:  Solving for nuTilda, Initial residual = 0.2563797523326439, Final residual = 0.02532085323834784, No Iterations 3
ExecutionTime = 811.9 s  ClockTime = 815 s

Time = 17

velocityDampingConstraint velocityDamping damped 187744 (0.74%) of cells, with max limit 300
smoothSolver:  Solving for Ux, Initial residual = 0.5707955130389077, Final residual = 0.01993242656624926, No Iterations 2
smoothSolver:  Solving for Uy, Initial residual = 0.5154463917178247, Final residual = 0.05079656988576791, No Iterations 2
smoothSolver:  Solving for Uz, Initial residual = 0.5362059180855594, Final residual = 0.04735797408013832, No Iterations 2
[OGL LOG][Proc: 0]: global_index_init: 0.016 [ms]
[OGL LOG][Proc: 0]p_local_coeffs: call_update: 0 [ms]
[OGL LOG][Proc: 0]p_non_local_coeffs: call_update: 0 [ms]
[OGL LOG][Proc: 0]p: update_local_matrix_data: 240.79 [ms]
[OGL LOG][Proc: 0]p: update_non_local_matrix_data: 0.789 [ms]
[OGL LOG][Proc: 0]p_matrix: call_update: 3.79 [ms]
[OGL LOG][Proc: 0]p_rhs: call_update: 15.336 [ms]
[OGL LOG][Preconditioner.H:271] Generate preconditioner GISAI SparsityPower 1
[OGL LOG][Proc: 0]p: init_precond: 446.986 [ms]
[OGL LOG][StoppingCriterion.H:239] Creating stopping criterion with minIter 600 frequency 4
[OGL LOG][Proc: 0]p: generate_solver: 0.017 [ms]
[OGL LOG][Proc: 0]p: solve: 2966.763 [ms]
[OGL LOG][Proc: 0]p: copy_x_back: 18.016 [ms]
[OGL LOG][lduLduBase.H:330] 
Statistics:
	Time per iteration: 2963 [mu s]
	Time per residual norm calculation: 168.000000 [mu s]
	Time per iteration and DOF: 0.117446 [ns]
	Retrieve results bandwidth 2.803000 [GByte/s]
[OGL LOG][Proc: 0]p: solve_multi_gpu: 3453.917 [ms]
GISAIcudaGKOCG:  Solving for p, Initial residual = 0.9999999997512937, Final residual = 0.9999999997455659, No Iterations 1001
time step continuity errors : sum local = 327.5593257813348, global = -0.00863087428983144, cumulative = -0.08579287668972418
smoothSolver:  Solving for nuTilda, Initial residual = 0.2321824461800437, Final residual = 0.009840258648338844, No Iterations 4
ExecutionTime = 841.39 s  ClockTime = 844 s

Time = 18

velocityDampingConstraint velocityDamping damped 182027 (0.72%) of cells, with max limit 300
smoothSolver:  Solving for Ux, Initial residual = 0.5052778204422562, Final residual = 0.01764483014434972, No Iterations 2
smoothSolver:  Solving for Uy, Initial residual = 0.5223401997243209, Final residual = 0.01489204451928793, No Iterations 2
smoothSolver:  Solving for Uz, Initial residual = 0.5227605085764041, Final residual = 0.02679643202445335, No Iterations 2
[OGL LOG][Proc: 0]: global_index_init: 0.017 [ms]
[OGL LOG][Proc: 0]p_local_coeffs: call_update: 0 [ms]
[OGL LOG][Proc: 0]p_non_local_coeffs: call_update: 0 [ms]
[OGL LOG][Proc: 0]p: update_local_matrix_data: 241.554 [ms]
[OGL LOG][Proc: 0]p: update_non_local_matrix_data: 0.872 [ms]
[OGL LOG][Proc: 0]p_matrix: call_update: 4.228 [ms]
[OGL LOG][Proc: 0]p_rhs: call_update: 15.368 [ms]
[OGL LOG][Preconditioner.H:271] Generate preconditioner GISAI SparsityPower 1
[OGL LOG][Proc: 0]p: init_precond: 433.132 [ms]
[OGL LOG][StoppingCriterion.H:239] Creating stopping criterion with minIter 600 frequency 4
[OGL LOG][Proc: 0]p: generate_solver: 0.02 [ms]
[OGL LOG][Proc: 0]p: solve: 2983.171 [ms]
[OGL LOG][Proc: 0]p: copy_x_back: 17.6 [ms]
[OGL LOG][lduLduBase.H:330] 
Statistics:
	Time per iteration: 2980 [mu s]
	Time per residual norm calculation: 172.000000 [mu s]
	Time per iteration and DOF: 0.118120 [ns]
	Retrieve results bandwidth 2.869000 [GByte/s]
[OGL LOG][Proc: 0]p: solve_multi_gpu: 3455.448 [ms]
GISAIcudaGKOCG:  Solving for p, Initial residual = 0.9999999997706649, Final residual = 0.9999999997680017, No Iterations 1001
time step continuity errors : sum local = 345.3917049742503, global = -0.009028691493467843, cumulative = -0.09482156818319203
smoothSolver:  Solving for nuTilda, Initial residual = 0.2125991358434672, Final residual = 0.02114099131200993, No Iterations 5
ExecutionTime = 871.14 s  ClockTime = 874 s

Time = 19

velocityDampingConstraint velocityDamping damped 179171 (0.71%) of cells, with max limit 300
smoothSolver:  Solving for Ux, Initial residual = 0.4829503171872805, Final residual = 0.01060658744532396, No Iterations 3
smoothSolver:  Solving for Uy, Initial residual = 0.4836416852431802, Final residual = 0.01301908601586831, No Iterations 3
smoothSolver:  Solving for Uz, Initial residual = 0.4858546143268599, Final residual = 0.006519221862823111, No Iterations 3
[OGL LOG][Proc: 0]: global_index_init: 0.02 [ms]
[OGL LOG][Proc: 0]p_local_coeffs: call_update: 0 [ms]
[OGL LOG][Proc: 0]p_non_local_coeffs: call_update: 0 [ms]
[OGL LOG][Proc: 0]p: update_local_matrix_data: 240.365 [ms]
[OGL LOG][Proc: 0]p: update_non_local_matrix_data: 0.752 [ms]
[OGL LOG][Proc: 0]p_matrix: call_update: 3.893 [ms]
[OGL LOG][Proc: 0]p_rhs: call_update: 14.972 [ms]
[OGL LOG][Preconditioner.H:271] Generate preconditioner GISAI SparsityPower 1
[OGL LOG][Proc: 0]p: init_precond: 431.39 [ms]
[OGL LOG][StoppingCriterion.H:239] Creating stopping criterion with minIter 600 frequency 4
[OGL LOG][Proc: 0]p: generate_solver: 0.019 [ms]
[OGL LOG][Proc: 0]p: solve: 2986.866 [ms]
[OGL LOG][Proc: 0]p: copy_x_back: 17.668 [ms]
[OGL LOG][lduLduBase.H:330] 
Statistics:
	Time per iteration: 2983 [mu s]
	Time per residual norm calculation: 172.000000 [mu s]
	Time per iteration and DOF: 0.118239 [ns]
	Retrieve results bandwidth 2.858000 [GByte/s]
[OGL LOG][Proc: 0]p: solve_multi_gpu: 3458.144 [ms]
GISAIcudaGKOCG:  Solving for p, Initial residual = 0.9999999998298638, Final residual = 0.9999999998612411, No Iterations 1001
time step continuity errors : sum local = 427.9777676914555, global = -0.009470148255078543, cumulative = -0.1042917164382706
smoothSolver:  Solving for nuTilda, Initial residual = 0.2331608895206723, Final residual = 0.01299880528416051, No Iterations 4
ExecutionTime = 901.25 s  ClockTime = 904 s

Time = 20

velocityDampingConstraint velocityDamping damped 173018 (0.6900000000000001%) of cells, with max limit 300
smoothSolver:  Solving for Ux, Initial residual = 0.5295116672673493, Final residual = 0.03305461628181226, No Iterations 2
smoothSolver:  Solving for Uy, Initial residual = 0.4970898442336686, Final residual = 0.04027529891933004, No Iterations 2
smoothSolver:  Solving for Uz, Initial residual = 0.5137902833017479, Final residual = 0.04085538331863162, No Iterations 2
[OGL LOG][Proc: 0]: global_index_init: 0.018 [ms]
[OGL LOG][Proc: 0]p_local_coeffs: call_update: 0 [ms]
[OGL LOG][Proc: 0]p_non_local_coeffs: call_update: 0 [ms]
[OGL LOG][Proc: 0]p: update_local_matrix_data: 241.019 [ms]
[OGL LOG][Proc: 0]p: update_non_local_matrix_data: 0.9350000000000001 [ms]
[OGL LOG][Proc: 0]p_matrix: call_update: 4.025 [ms]
[OGL LOG][Proc: 0]p_rhs: call_update: 15.368 [ms]
[OGL LOG][Preconditioner.H:271] Generate preconditioner GISAI SparsityPower 1
[OGL LOG][Proc: 0]p: init_precond: 441.547 [ms]
[OGL LOG][StoppingCriterion.H:239] Creating stopping criterion with minIter 600 frequency 4
[OGL LOG][Proc: 0]p: generate_solver: 0.017 [ms]
[OGL LOG][Proc: 0]p: solve: 2980.264 [ms]
[OGL LOG][Proc: 0]p: copy_x_back: 18.194 [ms]
[OGL LOG][lduLduBase.H:330] 
Statistics:
	Time per iteration: 2977 [mu s]
	Time per residual norm calculation: 170.000000 [mu s]
	Time per iteration and DOF: 0.118001 [ns]
	Retrieve results bandwidth 2.776000 [GByte/s]
[OGL LOG][Proc: 0]p: solve_multi_gpu: 3462.577 [ms]
GISAIcudaGKOCG:  Solving for p, Initial residual = 0.999999999735302, Final residual = 0.9999999998621597, No Iterations 1001
time step continuity errors : sum local = 389.2412386936177, global = -0.009852773536162983, cumulative = -0.1141444899744335
smoothSolver:  Solving for nuTilda, Initial residual = 0.2073340810787993, Final residual = 0.01123371255423899, No Iterations 6
ExecutionTime = 931.0599999999999 s  ClockTime = 934 s


    From virtual bool Foam::regIOobject::readIfModified()
    in file db/regIOobject/regIOobjectRead.C at line 271
        Re-reading object fvSolution from file "/hkfs/work/workspace/scratch/eq4036-windsorbody_setup/workspace/98667cafd28ab902e9ca0b7f5330bd48/case/system/fvSolution"
Time = 21

velocityDampingConstraint velocityDamping damped 170065 (0.67%) of cells, with max limit 300
smoothSolver:  Solving for Ux, Initial residual = 0.4903630776899777, Final residual = 0.02661030027839749, No Iterations 3
smoothSolver:  Solving for Uy, Initial residual = 0.5471273554462941, Final residual = 0.02823542782231892, No Iterations 3
smoothSolver:  Solving for Uz, Initial residual = 0.4955027291349726, Final residual = 0.0234618694696703, No Iterations 3
[OGL LOG][Proc: 0]: global_index_init: 0.021 [ms]
[OGL LOG][Proc: 0]p_local_coeffs: call_update: 0 [ms]
[OGL LOG][Proc: 0]p_non_local_coeffs: call_update: 0 [ms]
[OGL LOG][Proc: 0]p: update_local_matrix_data: 241.18 [ms]
[OGL LOG][Proc: 0]p: update_non_local_matrix_data: 0.9370000000000001 [ms]
[OGL LOG][Proc: 0]p_matrix: call_update: 3.681 [ms]
[OGL LOG][Proc: 0]p_rhs: call_update: 15.372 [ms]
[OGL LOG][Preconditioner.H:271] Generate preconditioner GISAI SparsityPower 1
[OGL LOG][Proc: 0]p: init_precond: 430.579 [ms]
[OGL LOG][StoppingCriterion.H:239] Creating stopping criterion with minIter 600 frequency 4
[OGL LOG][Proc: 0]p: generate_solver: 0.023 [ms]
[OGL LOG][Proc: 0]p: solve: 2997.862 [ms]
[OGL LOG][Proc: 0]p: copy_x_back: 17.721 [ms]
[OGL LOG][lduLduBase.H:330] 
Statistics:
	Time per iteration: 2994 [mu s]
	Time per residual norm calculation: 174.000000 [mu s]
	Time per iteration and DOF: 0.118675 [ns]
	Retrieve results bandwidth 2.850000 [GByte/s]
[OGL LOG][Proc: 0]p: solve_multi_gpu: 3467.839 [ms]
GISAIcudaGKOCG:  Solving for p, Initial residual = 0.9999999977104052, Final residual = 0.9999999986269501, No Iterations 1001
time step continuity errors : sum local = 381.9073865365011, global = -0.01027217880241998, cumulative = -0.1244166687768535
smoothSolver:  Solving for nuTilda, Initial residual = 0.2507617909391675, Final residual = 0.02400782232260436, No Iterations 1
ExecutionTime = 960.52 s  ClockTime = 964 s

Time = 22

velocityDampingConstraint velocityDamping damped 168934 (0.67%) of cells, with max limit 300
smoothSolver:  Solving for Ux, Initial residual = 0.5767422261430262, Final residual = 0.01336295020360239, No Iterations 1
smoothSolver:  Solving for Uy, Initial residual = 0.5787170101349398, Final residual = 0.01053219093778164, No Iterations 1
smoothSolver:  Solving for Uz, Initial residual = 0.5860257250627822, Final residual = 0.009321932026247662, No Iterations 1
[OGL LOG][Proc: 0]: global_index_init: 0.016 [ms]
[OGL LOG][Proc: 0]p_local_coeffs: call_update: 0 [ms]
[OGL LOG][Proc: 0]p_non_local_coeffs: call_update: 0 [ms]
[OGL LOG][Proc: 0]p: update_local_matrix_data: 240.563 [ms]
[OGL LOG][Proc: 0]p: update_non_local_matrix_data: 0.786 [ms]
[OGL LOG][Proc: 0]p_matrix: call_update: 4.113 [ms]
[OGL LOG][Proc: 0]p_rhs: call_update: 15.357 [ms]
[OGL LOG][Preconditioner.H:271] Generate preconditioner GISAI SparsityPower 1
[OGL LOG][Proc: 0]p: init_precond: 433.174 [ms]
[OGL LOG][StoppingCriterion.H:239] Creating stopping criterion with minIter 600 frequency 4
[OGL LOG][Proc: 0]p: generate_solver: 0.015 [ms]
[OGL LOG][Proc: 0]p: solve: 2980.631 [ms]
[OGL LOG][Proc: 0]p: copy_x_back: 18.205 [ms]
[OGL LOG][lduLduBase.H:330] 
Statistics:
	Time per iteration: 2977 [mu s]
	Time per residual norm calculation: 163.000000 [mu s]
	Time per iteration and DOF: 0.118001 [ns]
	Retrieve results bandwidth 2.774000 [GByte/s]
[OGL LOG][Proc: 0]p: solve_multi_gpu: 3454.465 [ms]
GISAIcudaGKOCG:  Solving for p, Initial residual = 0.9999999981045147, Final residual = 0.9999999979254574, No Iterations 1001
time step continuity errors : sum local = 616.6124824750841, global = -0.01054534800956082, cumulative = -0.1349620167864144
smoothSolver:  Solving for nuTilda, Initial residual = 0.2063201326542229, Final residual = 0.0174348413924937, No Iterations 7
ExecutionTime = 989.95 s  ClockTime = 993 s

Time = 23

velocityDampingConstraint velocityDamping damped 168676 (0.67%) of cells, with max limit 300
smoothSolver:  Solving for Ux, Initial residual = 0.4798333846327044, Final residual = 0.01955963903382733, No Iterations 4
smoothSolver:  Solving for Uy, Initial residual = 0.4884322126542023, Final residual = 0.01952126605569647, No Iterations 3
smoothSolver:  Solving for Uz, Initial residual = 0.4637923654402413, Final residual = 0.03636987165971487, No Iterations 4
[OGL LOG][Proc: 0]: global_index_init: 0.018 [ms]
[OGL LOG][Proc: 0]p_local_coeffs: call_update: 0 [ms]
[OGL LOG][Proc: 0]p_non_local_coeffs: call_update: 0 [ms]
[OGL LOG][Proc: 0]p: update_local_matrix_data: 240.457 [ms]
[OGL LOG][Proc: 0]p: update_non_local_matrix_data: 0.916 [ms]
[OGL LOG][Proc: 0]p_matrix: call_update: 3.977 [ms]
[OGL LOG][Proc: 0]p_rhs: call_update: 14.848 [ms]
[OGL LOG][Preconditioner.H:271] Generate preconditioner GISAI SparsityPower 1
[OGL LOG][Proc: 0]p: init_precond: 440.05 [ms]
[OGL LOG][StoppingCriterion.H:239] Creating stopping criterion with minIter 600 frequency 4
[OGL LOG][Proc: 0]p: generate_solver: 0.03 [ms]
[OGL LOG][Proc: 0]p: solve: 2975.072 [ms]
[OGL LOG][Proc: 0]p: copy_x_back: 17.85 [ms]
[OGL LOG][lduLduBase.H:330] 
Statistics:
	Time per iteration: 2972 [mu s]
	Time per residual norm calculation: 173.000000 [mu s]
	Time per iteration and DOF: 0.117803 [ns]
	Retrieve results bandwidth 2.829000 [GByte/s]
[OGL LOG][Proc: 0]p: solve_multi_gpu: 3454.831 [ms]
GISAIcudaGKOCG:  Solving for p, Initial residual = 0.9999999992275469, Final residual = 0.9999999992819417, No Iterations 1001
time step continuity errors : sum local = 1582.645453853106, global = -0.01097788557506165, cumulative = -0.145939902361476
smoothSolver:  Solving for nuTilda, Initial residual = 0.2819904265053569, Final residual = 0.005738471805914115, No Iterations 1
ExecutionTime = 1019.75 s  ClockTime = 1023 s

Time = 24

velocityDampingConstraint velocityDamping damped 173642 (0.6900000000000001%) of cells, with max limit 300
smoothSolver:  Solving for Ux, Initial residual = 0.5916614252151843, Final residual = 0.0006848465539055265, No Iterations 1
smoothSolver:  Solving for Uy, Initial residual = 0.5898428361640483, Final residual = 0.004469432961423724, No Iterations 1
smoothSolver:  Solving for Uz, Initial residual = 0.5835180854050174, Final residual = 0.0006845441131351669, No Iterations 1
[OGL LOG][Proc: 0]: global_index_init: 0.017 [ms]
[OGL LOG][Proc: 0]p_local_coeffs: call_update: 0 [ms]
[OGL LOG][Proc: 0]p_non_local_coeffs: call_update: 0 [ms]
[OGL LOG][Proc: 0]p: update_local_matrix_data: 239.657 [ms]
[OGL LOG][Proc: 0]p: update_non_local_matrix_data: 0.832 [ms]
[OGL LOG][Proc: 0]p_matrix: call_update: 3.948 [ms]
[OGL LOG][Proc: 0]p_rhs: call_update: 15.282 [ms]
[OGL LOG][Preconditioner.H:271] Generate preconditioner GISAI SparsityPower 1
[OGL LOG][Proc: 0]p: init_precond: 435.821 [ms]
[OGL LOG][StoppingCriterion.H:239] Creating stopping criterion with minIter 600 frequency 4
[OGL LOG][Proc: 0]p: generate_solver: 0.019 [ms]
[OGL LOG][Proc: 0]p: solve: 2971.422 [ms]
[OGL LOG][Proc: 0]p: copy_x_back: 17.657 [ms]
[OGL LOG][lduLduBase.H:330] 
Statistics:
	Time per iteration: 2968 [mu s]
	Time per residual norm calculation: 172.000000 [mu s]
	Time per iteration and DOF: 0.117645 [ns]
	Retrieve results bandwidth 2.860000 [GByte/s]
[OGL LOG][Proc: 0]p: solve_multi_gpu: 3446.516 [ms]
GISAIcudaGKOCG:  Solving for p, Initial residual = 0.9999999986402408, Final residual = 0.9999999984338829, No Iterations 1001
time step continuity errors : sum local = 1734.785678318667, global = -0.01123806496150727, cumulative = -0.1571779673229833
smoothSolver:  Solving for nuTilda, Initial residual = 0.2592513806241122, Final residual = 0.02499096279524465, No Iterations 6
ExecutionTime = 1048.97 s  ClockTime = 1052 s

Time = 25

velocityDampingConstraint velocityDamping damped 170722 (0.68%) of cells, with max limit 300
smoothSolver:  Solving for Ux, Initial residual = 0.4246184753934671, Final residual = 0.04134932301281713, No Iterations 2
smoothSolver:  Solving for Uy, Initial residual = 0.4373640186727943, Final residual = 0.009688725471989902, No Iterations 3
smoothSolver:  Solving for Uz, Initial residual = 0.4352866636037581, Final residual = 0.01090539664472115, No Iterations 3
[OGL LOG][Proc: 0]: global_index_init: 0.015 [ms]
[OGL LOG][Proc: 0]p_local_coeffs: call_update: 0 [ms]
[OGL LOG][Proc: 0]p_non_local_coeffs: call_update: 0 [ms]
[OGL LOG][Proc: 0]p: update_local_matrix_data: 240.08 [ms]
[OGL LOG][Proc: 0]p: update_non_local_matrix_data: 0.906 [ms]
[OGL LOG][Proc: 0]p_matrix: call_update: 4.013 [ms]
[OGL LOG][Proc: 0]p_rhs: call_update: 15.013 [ms]
[OGL LOG][Preconditioner.H:271] Generate preconditioner GISAI SparsityPower 1
[OGL LOG][Proc: 0]p: init_precond: 442.7 [ms]
[OGL LOG][StoppingCriterion.H:239] Creating stopping criterion with minIter 600 frequency 4
[OGL LOG][Proc: 0]p: generate_solver: 0.019 [ms]
[OGL LOG][Proc: 0]p: solve: 2986.979 [ms]
[OGL LOG][Proc: 0]p: copy_x_back: 17.833 [ms]
[OGL LOG][lduLduBase.H:330] 
Statistics:
	Time per iteration: 2983 [mu s]
	Time per residual norm calculation: 170.000000 [mu s]
	Time per iteration and DOF: 0.118239 [ns]
	Retrieve results bandwidth 2.832000 [GByte/s]
[OGL LOG][Proc: 0]p: solve_multi_gpu: 3469.759 [ms]
GISAIcudaGKOCG:  Solving for p, Initial residual = 0.9999999980113984, Final residual = 0.9999999980115178, No Iterations 1001
time step continuity errors : sum local = 854.3116246208726, global = -0.01157020743706686, cumulative = -0.1687481747600501
smoothSolver:  Solving for nuTilda, Initial residual = 0.3014325874506814, Final residual = 0.01066923802324919, No Iterations 2
ExecutionTime = 1078.45 s  ClockTime = 1082 s

Time = 26

velocityDampingConstraint velocityDamping damped 176942 (0.7000000000000001%) of cells, with max limit 300
smoothSolver:  Solving for Ux, Initial residual = 0.5605699128598424, Final residual = 0.02878136330553458, No Iterations 2
smoothSolver:  Solving for Uy, Initial residual = 0.5600369484338215, Final residual = 0.008123464463052638, No Iterations 3
smoothSolver:  Solving for Uz, Initial residual = 0.5642583195623521, Final residual = 0.01256042288785248, No Iterations 2
[OGL LOG][Proc: 0]: global_index_init: 0.021 [ms]
[OGL LOG][Proc: 0]p_local_coeffs: call_update: 0 [ms]
[OGL LOG][Proc: 0]p_non_local_coeffs: call_update: 0 [ms]
[OGL LOG][Proc: 0]p: update_local_matrix_data: 239.885 [ms]
[OGL LOG][Proc: 0]p: update_non_local_matrix_data: 0.856 [ms]
[OGL LOG][Proc: 0]p_matrix: call_update: 4.096 [ms]
[OGL LOG][Proc: 0]p_rhs: call_update: 15.341 [ms]
[OGL LOG][Preconditioner.H:271] Generate preconditioner GISAI SparsityPower 1
[OGL LOG][Proc: 0]p: init_precond: 433.647 [ms]
[OGL LOG][StoppingCriterion.H:239] Creating stopping criterion with minIter 600 frequency 4
[OGL LOG][Proc: 0]p: generate_solver: 0.022 [ms]
[OGL LOG][Proc: 0]p: solve: 2986.123 [ms]
[OGL LOG][Proc: 0]p: copy_x_back: 17.718 [ms]
[OGL LOG][lduLduBase.H:330] 
Statistics:
	Time per iteration: 2983 [mu s]
	Time per residual norm calculation: 177.000000 [mu s]
	Time per iteration and DOF: 0.118239 [ns]
	Retrieve results bandwidth 2.850000 [GByte/s]
[OGL LOG][Proc: 0]p: solve_multi_gpu: 3459.865 [ms]
GISAIcudaGKOCG:  Solving for p, Initial residual = 0.9999999991068788, Final residual = 0.9999999991999949, No Iterations 1001
time step continuity errors : sum local = 1504.545564374609, global = -0.01190933546344235, cumulative = -0.1806575102234925
smoothSolver:  Solving for nuTilda, Initial residual = 0.2849410976636438, Final residual = 0.02098863549882929, No Iterations 4
ExecutionTime = 1108.05 s  ClockTime = 1112 s

Time = 27

velocityDampingConstraint velocityDamping damped 176724 (0.7000000000000001%) of cells, with max limit 300
smoothSolver:  Solving for Ux, Initial residual = 0.5528858597682438, Final residual = 0.01734538595951145, No Iterations 3
smoothSolver:  Solving for Uy, Initial residual = 0.5618919398784102, Final residual = 0.05260766062032897, No Iterations 2
smoothSolver:  Solving for Uz, Initial residual = 0.5175490111529579, Final residual = 0.01931888932894393, No Iterations 3
[OGL LOG][Proc: 0]: global_index_init: 0.016 [ms]
[OGL LOG][Proc: 0]p_local_coeffs: call_update: 0 [ms]
[OGL LOG][Proc: 0]p_non_local_coeffs: call_update: 0 [ms]
[OGL LOG][Proc: 0]p: update_local_matrix_data: 240.074 [ms]
[OGL LOG][Proc: 0]p: update_non_local_matrix_data: 0.851 [ms]
[OGL LOG][Proc: 0]p_matrix: call_update: 3.941 [ms]
[OGL LOG][Proc: 0]p_rhs: call_update: 15.395 [ms]
[OGL LOG][Preconditioner.H:271] Generate preconditioner GISAI SparsityPower 1
[OGL LOG][Proc: 0]p: init_precond: 437.616 [ms]
[OGL LOG][StoppingCriterion.H:239] Creating stopping criterion with minIter 600 frequency 5
[OGL LOG][Proc: 0]p: generate_solver: 0.015 [ms]
[OGL LOG][Proc: 0]p: solve: 2967.994 [ms]
[OGL LOG][Proc: 0]p: copy_x_back: 17.541 [ms]
[OGL LOG][lduLduBase.H:330] 
Statistics:
	Time per iteration: 2965 [mu s]
	Time per residual norm calculation: 167.000000 [mu s]
	Time per iteration and DOF: 0.117526 [ns]
	Retrieve results bandwidth 2.879000 [GByte/s]
[OGL LOG][Proc: 0]p: solve_multi_gpu: 3444.826 [ms]
GISAIcudaGKOCG:  Solving for p, Initial residual = 0.999999998342884, Final residual = 1.000000002663676, No Iterations 1001
time step continuity errors : sum local = 971.3576925858929, global = -0.01225644887616313, cumulative = -0.1929139590996556
smoothSolver:  Solving for nuTilda, Initial residual = 0.1269523840257391, Final residual = 0.007300106604049072, No Iterations 5
ExecutionTime = 1138.01 s  ClockTime = 1142 s

Time = 28

velocityDampingConstraint velocityDamping damped 177611 (0.7000000000000001%) of cells, with max limit 300
smoothSolver:  Solving for Ux, Initial residual = 0.5261032406187679, Final residual = 0.04394012466918706, No Iterations 2
smoothSolver:  Solving for Uy, Initial residual = 0.4801043689305557, Final residual = 0.005738154101669687, No Iterations 3
smoothSolver:  Solving for Uz, Initial residual = 0.5351322072218183, Final residual = 0.01840684415693605, No Iterations 3
[OGL LOG][Proc: 0]: global_index_init: 0.016 [ms]
[OGL LOG][Proc: 0]p_local_coeffs: call_update: 0 [ms]
[OGL LOG][Proc: 0]p_non_local_coeffs: call_update: 0 [ms]
[OGL LOG][Proc: 0]p: update_local_matrix_data: 240.381 [ms]
[OGL LOG][Proc: 0]p: update_non_local_matrix_data: 0.859 [ms]
[OGL LOG][Proc: 0]p_matrix: call_update: 4.097 [ms]
[OGL LOG][Proc: 0]p_rhs: call_update: 15.294 [ms]
[OGL LOG][Preconditioner.H:271] Generate preconditioner GISAI SparsityPower 1
[OGL LOG][Proc: 0]p: init_precond: 435.102 [ms]
[OGL LOG][StoppingCriterion.H:239] Creating stopping criterion with minIter 600 frequency 4
[OGL LOG][Proc: 0]p: generate_solver: 0.02 [ms]
[OGL LOG][Proc: 0]p: solve: 2982.337 [ms]
[OGL LOG][Proc: 0]p: copy_x_back: 17.779 [ms]
[OGL LOG][lduLduBase.H:330] 
Statistics:
	Time per iteration: 2979 [mu s]
	Time per residual norm calculation: 172.000000 [mu s]
	Time per iteration and DOF: 0.118081 [ns]
	Retrieve results bandwidth 2.840000 [GByte/s]
[OGL LOG][Proc: 0]p: solve_multi_gpu: 3457.264 [ms]
GISAIcudaGKOCG:  Solving for p, Initial residual = 0.999999993356179, Final residual = 0.9999999930627066, No Iterations 1001
time step continuity errors : sum local = 431.2064062032175, global = -0.01257258313631412, cumulative = -0.2054865422359697
smoothSolver:  Solving for nuTilda, Initial residual = 0.1954073483439308, Final residual = 0.008778846330528186, No Iterations 2
ExecutionTime = 1167.42 s  ClockTime = 1171 s

Time = 29

velocityDampingConstraint velocityDamping damped 178121 (0.71%) of cells, with max limit 300
smoothSolver:  Solving for Ux, Initial residual = 0.5396447250066518, Final residual = 0.03900206464803545, No Iterations 1
smoothSolver:  Solving for Uy, Initial residual = 0.4917013430860235, Final residual = 0.03635650865132217, No Iterations 1
smoothSolver:  Solving for Uz, Initial residual = 0.5377459522978567, Final residual = 0.02747438224268217, No Iterations 2
[OGL LOG][Proc: 0]: global_index_init: 0.019 [ms]
[OGL LOG][Proc: 0]p_local_coeffs: call_update: 0 [ms]
[OGL LOG][Proc: 0]p_non_local_coeffs: call_update: 0 [ms]
[OGL LOG][Proc: 0]p: update_local_matrix_data: 240.4 [ms]
[OGL LOG][Proc: 0]p: update_non_local_matrix_data: 0.802 [ms]
[OGL LOG][Proc: 0]p_matrix: call_update: 3.834 [ms]
[OGL LOG][Proc: 0]p_rhs: call_update: 15.122 [ms]
[OGL LOG][Preconditioner.H:271] Generate preconditioner GISAI SparsityPower 1
[OGL LOG][Proc: 0]p: init_precond: 436.887 [ms]
[OGL LOG][StoppingCriterion.H:239] Creating stopping criterion with minIter 600 frequency 4
[OGL LOG][Proc: 0]p: generate_solver: 0.018 [ms]
[OGL LOG][Proc: 0]p: solve: 2964.345 [ms]
[OGL LOG][Proc: 0]p: copy_x_back: 18.243 [ms]
[OGL LOG][lduLduBase.H:330] 
Statistics:
	Time per iteration: 2961 [mu s]
	Time per residual norm calculation: 174.000000 [mu s]
	Time per iteration and DOF: 0.117367 [ns]
	Retrieve results bandwidth 2.768000 [GByte/s]
[OGL LOG][Proc: 0]p: solve_multi_gpu: 3441.707 [ms]
GISAIcudaGKOCG:  Solving for p, Initial residual = 0.9999999937145627, Final residual = 0.9999999930669526, No Iterations 1001
time step continuity errors : sum local = 337.7859958182785, global = -0.01278079172341406, cumulative = -0.2182673339593838
smoothSolver:  Solving for nuTilda, Initial residual = 0.1579295430270559, Final residual = 0.00822412291796723, No Iterations 4
ExecutionTime = 1196.47 s  ClockTime = 1200 s

Time = 30

velocityDampingConstraint velocityDamping damped 178403 (0.71%) of cells, with max limit 300
smoothSolver:  Solving for Ux, Initial residual = 0.5476983824931896, Final residual = 0.01589783874695163, No Iterations 3
smoothSolver:  Solving for Uy, Initial residual = 0.5513612889924596, Final residual = 0.009926191961520085, No Iterations 3
smoothSolver:  Solving for Uz, Initial residual = 0.4785430697438423, Final residual = 0.01227867146870706, No Iterations 3
[OGL LOG][Proc: 0]: global_index_init: 0.016 [ms]
[OGL LOG][Proc: 0]p_local_coeffs: call_update: 0 [ms]
[OGL LOG][Proc: 0]p_non_local_coeffs: call_update: 0 [ms]
[OGL LOG][Proc: 0]p: update_local_matrix_data: 240.663 [ms]
[OGL LOG][Proc: 0]p: update_non_local_matrix_data: 0.895 [ms]
[OGL LOG][Proc: 0]p_matrix: call_update: 4.19 [ms]
[OGL LOG][Proc: 0]p_rhs: call_update: 15.261 [ms]
[OGL LOG][Preconditioner.H:271] Generate preconditioner GISAI SparsityPower 1
[OGL LOG][Proc: 0]p: init_precond: 434.188 [ms]
[OGL LOG][StoppingCriterion.H:239] Creating stopping criterion with minIter 600 frequency 4
[OGL LOG][Proc: 0]p: generate_solver: 0.017 [ms]
[OGL LOG][Proc: 0]p: solve: 2963.687 [ms]
[OGL LOG][Proc: 0]p: copy_x_back: 17.684 [ms]
[OGL LOG][lduLduBase.H:330] 
Statistics:
	Time per iteration: 2960 [mu s]
	Time per residual norm calculation: 165.000000 [mu s]
	Time per iteration and DOF: 0.117327 [ns]
	Retrieve results bandwidth 2.856000 [GByte/s]
[OGL LOG][Proc: 0]p: solve_multi_gpu: 3437.868 [ms]
GISAIcudaGKOCG:  Solving for p, Initial residual = 0.9999999902985474, Final residual = 0.9999999924710121, No Iterations 1001
time step continuity errors : sum local = 332.3892681236124, global = -0.01311981363211289, cumulative = -0.2313871475914967
smoothSolver:  Solving for nuTilda, Initial residual = 0.1292127027390207, Final residual = 0.006656231260617372, No Iterations 3
ExecutionTime = 1226.21 s  ClockTime = 1230 s

Time = 31

velocityDampingConstraint velocityDamping damped 181680 (0.72%) of cells, with max limit 300
smoothSolver:  Solving for Ux, Initial residual = 0.6065837855380167, Final residual = 0.03600338216550689, No Iterations 1
smoothSolver:  Solving for Uy, Initial residual = 0.5952709830258806, Final residual = 0.05163149264820753, No Iterations 1
smoothSolver:  Solving for Uz, Initial residual = 0.4933340275466307, Final residual = 0.02866919374510395, No Iterations 2
[OGL LOG][Proc: 0]: global_index_init: 0.016 [ms]
[OGL LOG][Proc: 0]p_local_coeffs: call_update: 0 [ms]
[OGL LOG][Proc: 0]p_non_local_coeffs: call_update: 0 [ms]
[OGL LOG][Proc: 0]p: update_local_matrix_data: 241.153 [ms]
[OGL LOG][Proc: 0]p: update_non_local_matrix_data: 0.897 [ms]
[OGL LOG][Proc: 0]p_matrix: call_update: 3.991 [ms]
[OGL LOG][Proc: 0]p_rhs: call_update: 15.205 [ms]
[OGL LOG][Preconditioner.H:271] Generate preconditioner GISAI SparsityPower 1
[OGL LOG][Proc: 0]p: init_precond: 428.358 [ms]
[OGL LOG][StoppingCriterion.H:239] Creating stopping criterion with minIter 600 frequency 4
[OGL LOG][Proc: 0]p: generate_solver: 0.021 [ms]
[OGL LOG][Proc: 0]p: solve: 2989.155 [ms]
[OGL LOG][Proc: 0]p: copy_x_back: 17.577 [ms]
[OGL LOG][lduLduBase.H:330] 
Statistics:
	Time per iteration: 2986 [mu s]
	Time per residual norm calculation: 172.000000 [mu s]
	Time per iteration and DOF: 0.118358 [ns]
	Retrieve results bandwidth 2.873000 [GByte/s]
[OGL LOG][Proc: 0]p: solve_multi_gpu: 3456.054 [ms]
GISAIcudaGKOCG:  Solving for p, Initial residual = 0.9999999743424115, Final residual = 0.9999999744767826, No Iterations 1001
time step continuity errors : sum local = 245.4217832785539, global = -0.01331060330444809, cumulative = -0.2446977508959448
smoothSolver:  Solving for nuTilda, Initial residual = 0.1082070041448173, Final residual = 0.007711532940005468, No Iterations 3
ExecutionTime = 1255.08 s  ClockTime = 1259 s

Time = 32

velocityDampingConstraint velocityDamping damped 180901 (0.72%) of cells, with max limit 300
smoothSolver:  Solving for Ux, Initial residual = 0.5421250584329347, Final residual = 0.004074241134286199, No Iterations 3
smoothSolver:  Solving for Uy, Initial residual = 0.5632822777970073, Final residual = 0.04424180162733422, No Iterations 2
smoothSolver:  Solving for Uz, Initial residual = 0.5069300294930982, Final residual = 0.01922547818331194, No Iterations 3
[OGL LOG][Proc: 0]: global_index_init: 0.016 [ms]
[OGL LOG][Proc: 0]p_local_coeffs: call_update: 0 [ms]
[OGL LOG][Proc: 0]p_non_local_coeffs: call_update: 0 [ms]
[OGL LOG][Proc: 0]p: update_local_matrix_data: 240.365 [ms]
[OGL LOG][Proc: 0]p: update_non_local_matrix_data: 0.794 [ms]
[OGL LOG][Proc: 0]p_matrix: call_update: 3.893 [ms]
[OGL LOG][Proc: 0]p_rhs: call_update: 15.249 [ms]
[OGL LOG][Preconditioner.H:271] Generate preconditioner GISAI SparsityPower 1
[OGL LOG][Proc: 0]p: init_precond: 431.652 [ms]
[OGL LOG][StoppingCriterion.H:239] Creating stopping criterion with minIter 600 frequency 4
[OGL LOG][Proc: 0]p: generate_solver: 0.018 [ms]
[OGL LOG][Proc: 0]p: solve: 2965.248 [ms]
[OGL LOG][Proc: 0]p: copy_x_back: 18.152 [ms]
[OGL LOG][lduLduBase.H:330] 
Statistics:
	Time per iteration: 2962 [mu s]
	Time per residual norm calculation: 165.000000 [mu s]
	Time per iteration and DOF: 0.117407 [ns]
	Retrieve results bandwidth 2.782000 [GByte/s]
[OGL LOG][Proc: 0]p: solve_multi_gpu: 3437.42 [ms]
GISAIcudaGKOCG:  Solving for p, Initial residual = 0.9999999464058899, Final residual = 0.9999999662359587, No Iterations 1001
time step continuity errors : sum local = 137.4753328051547, global = -0.0136247974487935, cumulative = -0.2583225483447383
smoothSolver:  Solving for nuTilda, Initial residual = 0.0902005674204667, Final residual = 0.005069668390088618, No Iterations 3
ExecutionTime = 1284.63 s  ClockTime = 1289 s

Time = 33

velocityDampingConstraint velocityDamping damped 185885 (0.74%) of cells, with max limit 300
smoothSolver:  Solving for Ux, Initial residual = 0.6309339099056019, Final residual = 0.06109142563045186, No Iterations 1
smoothSolver:  Solving for Uy, Initial residual = 0.6060301139102428, Final residual = 0.02015349330279817, No Iterations 2
smoothSolver:  Solving for Uz, Initial residual = 0.4904941192322183, Final residual = 0.02790286562765124, No Iterations 2
[OGL LOG][Proc: 0]: global_index_init: 0.016 [ms]
[OGL LOG][Proc: 0]p_local_coeffs: call_update: 0 [ms]
[OGL LOG][Proc: 0]p_non_local_coeffs: call_update: 0 [ms]
[OGL LOG][Proc: 0]p: update_local_matrix_data: 240.664 [ms]
[OGL LOG][Proc: 0]p: update_non_local_matrix_data: 0.857 [ms]
[OGL LOG][Proc: 0]p_matrix: call_update: 3.656 [ms]
[OGL LOG][Proc: 0]p_rhs: call_update: 15.166 [ms]
[OGL LOG][Preconditioner.H:271] Generate preconditioner GISAI SparsityPower 1
[OGL LOG][Proc: 0]p: init_precond: 426.648 [ms]
[OGL LOG][StoppingCriterion.H:239] Creating stopping criterion with minIter 600 frequency 4
[OGL LOG][Proc: 0]p: generate_solver: 0.018 [ms]
[OGL LOG][Proc: 0]p: solve: 2986.349 [ms]
[OGL LOG][Proc: 0]p: copy_x_back: 17.65 [ms]
[OGL LOG][lduLduBase.H:330] 
Statistics:
	Time per iteration: 2983 [mu s]
	Time per residual norm calculation: 172.000000 [mu s]
	Time per iteration and DOF: 0.118239 [ns]
	Retrieve results bandwidth 2.861000 [GByte/s]
[OGL LOG][Proc: 0]p: solve_multi_gpu: 3452.326 [ms]
GISAIcudaGKOCG:  Solving for p, Initial residual = 0.9999998946697577, Final residual = 0.999999886703815, No Iterations 1001
time step continuity errors : sum local = 113.9790077217149, global = -0.01380051319667739, cumulative = -0.2721230615414157
smoothSolver:  Solving for nuTilda, Initial residual = 0.07197504637989879, Final residual = 0.005996783914332629, No Iterations 3
ExecutionTime = 1313.68 s  ClockTime = 1318 s

Time = 34

velocityDampingConstraint velocityDamping damped 185034 (0.73%) of cells, with max limit 300
smoothSolver:  Solving for Ux, Initial residual = 0.5022668518915089, Final residual = 0.03477122827055549, No Iterations 2
smoothSolver:  Solving for Uy, Initial residual = 0.4828190201307712, Final residual = 0.03219138440941721, No Iterations 2
smoothSolver:  Solving for Uz, Initial residual = 0.4220684539065306, Final residual = 0.01233914690499709, No Iterations 3
[OGL LOG][Proc: 0]: global_index_init: 0.02 [ms]
[OGL LOG][Proc: 0]p_local_coeffs: call_update: 0 [ms]
[OGL LOG][Proc: 0]p_non_local_coeffs: call_update: 0 [ms]
[OGL LOG][Proc: 0]p: update_local_matrix_data: 240.676 [ms]
[OGL LOG][Proc: 0]p: update_non_local_matrix_data: 1.047 [ms]
[OGL LOG][Proc: 0]p_matrix: call_update: 3.722 [ms]
[OGL LOG][Proc: 0]p_rhs: call_update: 15.407 [ms]
[OGL LOG][Preconditioner.H:271] Generate preconditioner GISAI SparsityPower 1
[OGL LOG][Proc: 0]p: init_precond: 430.943 [ms]
[OGL LOG][StoppingCriterion.H:239] Creating stopping criterion with minIter 600 frequency 4
[OGL LOG][Proc: 0]p: generate_solver: 0.02 [ms]
[OGL LOG][Proc: 0]p: solve: 2968.099 [ms]
[OGL LOG][Proc: 0]p: copy_x_back: 17.638 [ms]
[OGL LOG][lduLduBase.H:330] 
Statistics:
	Time per iteration: 2965 [mu s]
	Time per residual norm calculation: 173.000000 [mu s]
	Time per iteration and DOF: 0.117526 [ns]
	Retrieve results bandwidth 2.863000 [GByte/s]
[OGL LOG][Proc: 0]p: solve_multi_gpu: 3438.663 [ms]
GISAIcudaGKOCG:  Solving for p, Initial residual = 0.9999998535902438, Final residual = 0.9999997381520791, No Iterations 1001
time step continuity errors : sum local = 101.7347540450087, global = -0.01406130133448399, cumulative = -0.2861843628758997
smoothSolver:  Solving for nuTilda, Initial residual = 0.06467775369337599, Final residual = 0.005665056438022808, No Iterations 3
ExecutionTime = 1343.05 s  ClockTime = 1347 s

Time = 35

velocityDampingConstraint velocityDamping damped 190264 (0.75%) of cells, with max limit 300
smoothSolver:  Solving for Ux, Initial residual = 0.5158767421726531, Final residual = 0.01140112440638578, No Iterations 3
smoothSolver:  Solving for Uy, Initial residual = 0.5055756003961133, Final residual = 0.01277562629479684, No Iterations 3
smoothSolver:  Solving for Uz, Initial residual = 0.5002968969113039, Final residual = 0.04176902774486341, No Iterations 2
[OGL LOG][Proc: 0]: global_index_init: 0.019 [ms]
[OGL LOG][Proc: 0]p_local_coeffs: call_update: 0 [ms]
[...]
	Time per iteration: 2962 [mu s]
	Time per residual norm calculation: 164.000000 [mu s]
	Time per iteration and DOF: 0.117407 [ns]
	Retrieve results bandwidth 2.827000 [GByte/s]
[OGL LOG][Proc: 0]p: solve_multi_gpu: 3456.876 [ms]
GISAIcudaGKOCG:  Solving for p, Initial residual = 0.9999999501460891, Final residual = 0.9999999501467667, No Iterations 1001
time step continuity errors : sum local = 117650679722522.1, global = 0.6089595729553154, cumulative = -0.5863168100555394
smoothSolver:  Solving for nuTilda, Initial residual = 0.3296564188696595, Final residual = 0.0263587110109527, No Iterations 6
ExecutionTime = 2987.05 s  ClockTime = 2995 s

Time = 91

velocityDampingConstraint velocityDamping damped 456927 (1.81%) of cells, with max limit 300
smoothSolver:  Solving for Ux, Initial residual = 0.5577828187760302, Final residual = 0.01182470089149101, No Iterations 2
smoothSolver:  Solving for Uy, Initial residual = 0.557752110875766, Final residual = 0.01182976903469483, No Iterations 2
smoothSolver:  Solving for Uz, Initial residual = 0.5577911935014332, Final residual = 0.0118226709748516, No Iterations 2
[OGL LOG][Proc: 0]: global_index_init: 0.015 [ms]
[OGL LOG][Proc: 0]p_local_coeffs: call_update: 0 [ms]
[OGL LOG][Proc: 0]p_non_local_coeffs: call_update: 0 [ms]
[OGL LOG][Proc: 0]p: update_local_matrix_data: 241.281 [ms]
[OGL LOG][Proc: 0]p: update_non_local_matrix_data: 0.855 [ms]
[OGL LOG][Proc: 0]p_matrix: call_update: 3.781 [ms]
[OGL LOG][Proc: 0]p_rhs: call_update: 15.701 [ms]
[OGL LOG][Preconditioner.H:271] Generate preconditioner GISAI SparsityPower 1
[OGL LOG][Proc: 0]p: init_precond: 439.775 [ms]
[OGL LOG][StoppingCriterion.H:239] Creating stopping criterion with minIter 600 frequency 4
[OGL LOG][Proc: 0]p: generate_solver: 0.017 [ms]
[OGL LOG][Proc: 0]p: solve: 2983.575 [ms]
[OGL LOG][Proc: 0]p: copy_x_back: 18.379 [ms]
[OGL LOG][lduLduBase.H:330] 
Statistics:
	Time per iteration: 2980 [mu s]
	Time per residual norm calculation: 168.000000 [mu s]
	Time per iteration and DOF: 0.118120 [ns]
	Retrieve results bandwidth 2.748000 [GByte/s]
[OGL LOG][Proc: 0]p: solve_multi_gpu: 3464.149 [ms]
GISAIcudaGKOCG:  Solving for p, Initial residual = 0.9999999781951883, Final residual = 0.9999999781950873, No Iterations 1001
time step continuity errors : sum local = 134381961771705.5, global = 0.2984259619684457, cumulative = -0.2878908480870936
smoothSolver:  Solving for nuTilda, Initial residual = 0.261302695366777, Final residual = 0.01465064994347634, No Iterations 8
ExecutionTime = 3016.71 s  ClockTime = 3024 s

Time = 92

velocityDampingConstraint velocityDamping damped 477285 (1.89%) of cells, with max limit 300
smoothSolver:  Solving for Ux, Initial residual = 0.5390201088186859, Final residual = 0.03727434499394078, No Iterations 2
smoothSolver:  Solving for Uy, Initial residual = 0.5390835187885273, Final residual = 0.03731624188877227, No Iterations 2
smoothSolver:  Solving for Uz, Initial residual = 0.5390122616387789, Final residual = 0.037281509731517, No Iterations 2
[OGL LOG][Proc: 0]: global_index_init: 0.018 [ms]
[OGL LOG][Proc: 0]p_local_coeffs: call_update: 0 [ms]
[OGL LOG][Proc: 0]p_non_local_coeffs: call_update: 0 [ms]
[OGL LOG][Proc: 0]p: update_local_matrix_data: 240.426 [ms]
[OGL LOG][Proc: 0]p: update_non_local_matrix_data: 0.922 [ms]
[OGL LOG][Proc: 0]p_matrix: call_update: 2.564 [ms]
[OGL LOG][Proc: 0]p_rhs: call_update: 16.256 [ms]
[OGL LOG][Preconditioner.H:271] Generate preconditioner GISAI SparsityPower 1
[OGL LOG][Proc: 0]p: init_precond: 426.33 [ms]
[OGL LOG][StoppingCriterion.H:239] Creating stopping criterion with minIter 600 frequency 4
[OGL LOG][Proc: 0]p: generate_solver: 0.02 [ms]
[OGL LOG][Proc: 0]p: solve: 2996.561 [ms]
[OGL LOG][Proc: 0]p: copy_x_back: 17.826 [ms]
[OGL LOG][lduLduBase.H:330] 
Statistics:
	Time per iteration: 2993 [mu s]
	Time per residual norm calculation: 169.000000 [mu s]
	Time per iteration and DOF: 0.118635 [ns]
	Retrieve results bandwidth 2.833000 [GByte/s]
[OGL LOG][Proc: 0]p: solve_multi_gpu: 3462.156 [ms]
GISAIcudaGKOCG:  Solving for p, Initial residual = 0.9999999817408672, Final residual = 0.9999999817432429, No Iterations 1001
time step continuity errors : sum local = 613243689781395.2, global = 2.743240696145188, cumulative = 2.455349848058094
smoothSolver:  Solving for nuTilda, Initial residual = 0.3865006509695216, Final residual = 0.03717119405891458, No Iterations 3
ExecutionTime = 3045.44 s  ClockTime = 3053 s

Time = 93

velocityDampingConstraint velocityDamping damped 498747 (1.98%) of cells, with max limit 300
smoothSolver:  Solving for Ux, Initial residual = 0.5595397644385367, Final residual = 0.01085510789221903, No Iterations 2
smoothSolver:  Solving for Uy, Initial residual = 0.5595322086164823, Final residual = 0.01087644087413762, No Iterations 2
smoothSolver:  Solving for Uz, Initial residual = 0.5595411813121252, Final residual = 0.01085115112328317, No Iterations 2
[OGL LOG][Proc: 0]: global_index_init: 0.015 [ms]
[OGL LOG][Proc: 0]p_local_coeffs: call_update: 0 [ms]
[OGL LOG][Proc: 0]p_non_local_coeffs: call_update: 0 [ms]
[OGL LOG][Proc: 0]p: update_local_matrix_data: 241.261 [ms]
[OGL LOG][Proc: 0]p: update_non_local_matrix_data: 0.805 [ms]
[OGL LOG][Proc: 0]p_matrix: call_update: 3.87 [ms]
[OGL LOG][Proc: 0]p_rhs: call_update: 15.498 [ms]
[OGL LOG][Preconditioner.H:271] Generate preconditioner GISAI SparsityPower 1
[OGL LOG][Proc: 0]p: init_precond: 443.623 [ms]
[OGL LOG][StoppingCriterion.H:239] Creating stopping criterion with minIter 600 frequency 4
[OGL LOG][Proc: 0]p: generate_solver: 0.017 [ms]
[OGL LOG][Proc: 0]p: solve: 2963.357 [ms]
[OGL LOG][Proc: 0]p: copy_x_back: 17.811 [ms]
[OGL LOG][lduLduBase.H:330] 
Statistics:
	Time per iteration: 2960 [mu s]
	Time per residual norm calculation: 171.000000 [mu s]
	Time per iteration and DOF: 0.117327 [ns]
	Retrieve results bandwidth 2.835000 [GByte/s]
[OGL LOG][Proc: 0]p: solve_multi_gpu: 3446.845 [ms]
GISAIcudaGKOCG:  Solving for p, Initial residual = 0.9999993594293746, Final residual = 0.9999993594293478, No Iterations 1001
time step continuity errors : sum local = 673705592172754.2, global = 2.008476648920464, cumulative = 4.463826496978559
smoothSolver:  Solving for nuTilda, Initial residual = 0.2178437805893122, Final residual = 0.01366402197804804, No Iterations 7
ExecutionTime = 3074.87 s  ClockTime = 3083 s

Time = 94

velocityDampingConstraint velocityDamping damped 521235 (2.07%) of cells, with max limit 300
smoothSolver:  Solving for Ux, Initial residual = 0.5377622135389931, Final residual = 0.02300646857963452, No Iterations 2
smoothSolver:  Solving for Uy, Initial residual = 0.5378231600203628, Final residual = 0.02297661407127853, No Iterations 2
smoothSolver:  Solving for Uz, Initial residual = 0.5377171484334285, Final residual = 0.02301525094153602, No Iterations 2
[OGL LOG][Proc: 0]: global_index_init: 0.016 [ms]
[OGL LOG][Proc: 0]p_local_coeffs: call_update: 0 [ms]
[OGL LOG][Proc: 0]p_non_local_coeffs: call_update: 0 [ms]
[OGL LOG][Proc: 0]p: update_local_matrix_data: 240.932 [ms]
[OGL LOG][Proc: 0]p: update_non_local_matrix_data: 0.838 [ms]
[OGL LOG][Proc: 0]p_matrix: call_update: 3.999 [ms]
[OGL LOG][Proc: 0]p_rhs: call_update: 15.248 [ms]
[OGL LOG][Preconditioner.H:271] Generate preconditioner GISAI SparsityPower 1
[OGL LOG][Proc: 0]p: init_precond: 440.385 [ms]
[OGL LOG][StoppingCriterion.H:239] Creating stopping criterion with minIter 600 frequency 4
[OGL LOG][Proc: 0]p: generate_solver: 0.019 [ms]
[OGL LOG][Proc: 0]p: solve: 2993.596 [ms]
[OGL LOG][Proc: 0]p: copy_x_back: 17.917 [ms]
[OGL LOG][lduLduBase.H:330] 
Statistics:
	Time per iteration: 2990 [mu s]
	Time per residual norm calculation: 171.000000 [mu s]
	Time per iteration and DOF: 0.118517 [ns]
	Retrieve results bandwidth 2.818000 [GByte/s]
[OGL LOG][Proc: 0]p: solve_multi_gpu: 3473.839 [ms]
GISAIcudaGKOCG:  Solving for p, Initial residual = 0.9999997531061336, Final residual = 0.9999997531062544, No Iterations 1001
time step continuity errors : sum local = 1701651525333903, global = 13.44671327771716, cumulative = 17.91053977469572
smoothSolver:  Solving for nuTilda, Initial residual = 0.3232803512590131, Final residual = 0.02523694047359972, No Iterations 5
ExecutionTime = 3103.99 s  ClockTime = 3112 s

Time = 95

velocityDampingConstraint velocityDamping damped 544401 (2.16%) of cells, with max limit 300
smoothSolver:  Solving for Ux, Initial residual = 0.5507993534388335, Final residual = 0.01258605949590672, No Iterations 2
smoothSolver:  Solving for Uy, Initial residual = 0.5507781512004478, Final residual = 0.01258096193120623, No Iterations 2
smoothSolver:  Solving for Uz, Initial residual = 0.5508010722122666, Final residual = 0.01258735835988646, No Iterations 2
[OGL LOG][Proc: 0]: global_index_init: 0.019 [ms]
[OGL LOG][Proc: 0]p_local_coeffs: call_update: 0 [ms]
[OGL LOG][Proc: 0]p_non_local_coeffs: call_update: 0 [ms]
[OGL LOG][Proc: 0]p: update_local_matrix_data: 240.255 [ms]
[OGL LOG][Proc: 0]p: update_non_local_matrix_data: 0.8179999999999999 [ms]
[OGL LOG][Proc: 0]p_matrix: call_update: 3.658 [ms]
[OGL LOG][Proc: 0]p_rhs: call_update: 15.66 [ms]
[OGL LOG][Preconditioner.H:271] Generate preconditioner GISAI SparsityPower 1
[OGL LOG][Proc: 0]p: init_precond: 426.805 [ms]
[OGL LOG][StoppingCriterion.H:239] Creating stopping criterion with minIter 600 frequency 4
[OGL LOG][Proc: 0]p: generate_solver: 0.019 [ms]
[OGL LOG][Proc: 0]p: solve: 2988.618 [ms]
[OGL LOG][Proc: 0]p: copy_x_back: 18.214 [ms]
[OGL LOG][lduLduBase.H:330] 
Statistics:
	Time per iteration: 2985 [mu s]
	Time per residual norm calculation: 170.000000 [mu s]
	Time per iteration and DOF: 0.118318 [ns]
	Retrieve results bandwidth 2.772000 [GByte/s]
[OGL LOG][Proc: 0]p: solve_multi_gpu: 3456.225 [ms]
GISAIcudaGKOCG:  Solving for p, Initial residual = 0.9999999489213396, Final residual = 0.9999999489245205, No Iterations 1001
time step continuity errors : sum local = 1879741073796410, global = 8.830990754876588, cumulative = 26.74153052957231
smoothSolver:  Solving for nuTilda, Initial residual = 0.2943658291668092, Final residual = 0.01841301902602808, No Iterations 7
bounding nuTilda, min: -1.928359204233326e-05 max: 333204714985429.1 average: 1874484804.731894
ExecutionTime = 3133.78 s  ClockTime = 3142 s

Time = 96

velocityDampingConstraint velocityDamping damped 568804 (2.25%) of cells, with max limit 300
smoothSolver:  Solving for Ux, Initial residual = 0.5371352337883669, Final residual = 0.03600212935200309, No Iterations 2
smoothSolver:  Solving for Uy, Initial residual = 0.5374256652260783, Final residual = 0.03605044612019081, No Iterations 2
smoothSolver:  Solving for Uz, Initial residual = 0.5372461160766862, Final residual = 0.03601903065871876, No Iterations 2
[OGL LOG][Proc: 0]: global_index_init: 0.016 [ms]
[OGL LOG][Proc: 0]p_local_coeffs: call_update: 0 [ms]
[OGL LOG][Proc: 0]p_non_local_coeffs: call_update: 0 [ms]
[OGL LOG][Proc: 0]p: update_local_matrix_data: 240.569 [ms]
[OGL LOG][Proc: 0]p: update_non_local_matrix_data: 0.865 [ms]
[OGL LOG][Proc: 0]p_matrix: call_update: 4.161 [ms]
[OGL LOG][Proc: 0]p_rhs: call_update: 15.367 [ms]
[OGL LOG][Preconditioner.H:271] Generate preconditioner GISAI SparsityPower 1
[OGL LOG][Proc: 0]p: init_precond: 433.927 [ms]
[OGL LOG][StoppingCriterion.H:239] Creating stopping criterion with minIter 600 frequency 4
[OGL LOG][Proc: 0]p: generate_solver: 0.015 [ms]
[OGL LOG][Proc: 0]p: solve: 2978.779 [ms]
[OGL LOG][Proc: 0]p: copy_x_back: 18.565 [ms]
[OGL LOG][lduLduBase.H:330] 
Statistics:
	Time per iteration: 2975 [mu s]
	Time per residual norm calculation: 166.000000 [mu s]
	Time per iteration and DOF: 0.117922 [ns]
	Retrieve results bandwidth 2.720000 [GByte/s]
[OGL LOG][Proc: 0]p: solve_multi_gpu: 3454.377 [ms]
GISAIcudaGKOCG:  Solving for p, Initial residual = 0.9999989604394296, Final residual = 0.9999989604393874, No Iterations 1001
time step continuity errors : sum local = 8162937853389671, global = 52.40120266062539, cumulative = 79.1427331901977
smoothSolver:  Solving for nuTilda, Initial residual = 0.3993821318031825, Final residual = 0.03206928562916142, No Iterations 5
ExecutionTime = 3162.84 s  ClockTime = 3171 s

Time = 97

velocityDampingConstraint velocityDamping damped 593796 (2.35%) of cells, with max limit 300
smoothSolver:  Solving for Ux, Initial residual = 0.5590541253237324, Final residual = 0.01194988442566445, No Iterations 2
smoothSolver:  Solving for Uy, Initial residual = 0.5590594320445228, Final residual = 0.01204303795805223, No Iterations 2
smoothSolver:  Solving for Uz, Initial residual = 0.5590619335906671, Final residual = 0.0120217947482472, No Iterations 2
[OGL LOG][Proc: 0]: global_index_init: 0.017 [ms]
[OGL LOG][Proc: 0]p_local_coeffs: call_update: 0 [ms]
[OGL LOG][Proc: 0]p_non_local_coeffs: call_update: 0 [ms]
[OGL LOG][Proc: 0]p: update_local_matrix_data: 240.106 [ms]
[OGL LOG][Proc: 0]p: update_non_local_matrix_data: 0.824 [ms]
[OGL LOG][Proc: 0]p_matrix: call_update: 3.928 [ms]
[OGL LOG][Proc: 0]p_rhs: call_update: 15.108 [ms]
[OGL LOG][Preconditioner.H:271] Generate preconditioner GISAI SparsityPower 1
[OGL LOG][Proc: 0]p: init_precond: 453.597 [ms]
[OGL LOG][StoppingCriterion.H:239] Creating stopping criterion with minIter 600 frequency 4
[OGL LOG][Proc: 0]p: generate_solver: 0.024 [ms]
[OGL LOG][Proc: 0]p: solve: 2970.974 [ms]
[OGL LOG][Proc: 0]p: copy_x_back: 18.021 [ms]
[OGL LOG][lduLduBase.H:330] 
Statistics:
	Time per iteration: 2968 [mu s]
	Time per residual norm calculation: 171.000000 [mu s]
	Time per iteration and DOF: 0.117645 [ns]
	Retrieve results bandwidth 2.802000 [GByte/s]
[OGL LOG][Proc: 0]p: solve_multi_gpu: 3464.341 [ms]
GISAIcudaGKOCG:  Solving for p, Initial residual = 0.9999999942548762, Final residual = 0.9999999944908088, No Iterations 1001
time step continuity errors : sum local = 8202557286238353, global = 41.35132561857288, cumulative = 120.4940588087706
smoothSolver:  Solving for nuTilda, Initial residual = 0.3432762882666354, Final residual = 0.03219460484697378, No Iterations 6
ExecutionTime = 3192.1 s  ClockTime = 3200 s

Time = 98

velocityDampingConstraint velocityDamping damped 620502 (2.46%) of cells, with max limit 300
smoothSolver:  Solving for Ux, Initial residual = 0.5511675019623715, Final residual = 0.02929479425856434, No Iterations 2
smoothSolver:  Solving for Uy, Initial residual = 0.5518542076502158, Final residual = 0.02933644064025712, No Iterations 2
smoothSolver:  Solving for Uz, Initial residual = 0.5516535215113434, Final residual = 0.02932708958663538, No Iterations 2
[OGL LOG][Proc: 0]: global_index_init: 0.016 [ms]
[OGL LOG][Proc: 0]p_local_coeffs: call_update: 0 [ms]
[OGL LOG][Proc: 0]p_non_local_coeffs: call_update: 0 [ms]
[OGL LOG][Proc: 0]p: update_local_matrix_data: 240.441 [ms]
[OGL LOG][Proc: 0]p: update_non_local_matrix_data: 0.826 [ms]
[OGL LOG][Proc: 0]p_matrix: call_update: 4.03 [ms]
[OGL LOG][Proc: 0]p_rhs: call_update: 15.244 [ms]
[OGL LOG][Preconditioner.H:271] Generate preconditioner GISAI SparsityPower 1
[OGL LOG][Proc: 0]p: init_precond: 445.174 [ms]
[OGL LOG][StoppingCriterion.H:239] Creating stopping criterion with minIter 600 frequency 4
[OGL LOG][Proc: 0]p: generate_solver: 0.017 [ms]
[OGL LOG][Proc: 0]p: solve: 2970.32 [ms]
[OGL LOG][Proc: 0]p: copy_x_back: 18.079 [ms]
[OGL LOG][lduLduBase.H:330] 
Statistics:
	Time per iteration: 2967 [mu s]
	Time per residual norm calculation: 167.000000 [mu s]
	Time per iteration and DOF: 0.117605 [ns]
	Retrieve results bandwidth 2.793000 [GByte/s]
[OGL LOG][Proc: 0]p: solve_multi_gpu: 3456.226 [ms]
GISAIcudaGKOCG:  Solving for p, Initial residual = 0.9999128071612109, Final residual = 0.999912807171447, No Iterations 1001
time step continuity errors : sum local = 3.05736114151083e+16, global = 142.1036088403048, cumulative = 262.5976676490754
smoothSolver:  Solving for nuTilda, Initial residual = 0.446905866712773, Final residual = 0.03952910182744066, No Iterations 2
ExecutionTime = 3220.64 s  ClockTime = 3229 s

Time = 99

velocityDampingConstraint velocityDamping damped 651093 (2.58%) of cells, with max limit 300
smoothSolver:  Solving for Ux, Initial residual = 0.5460322749592829, Final residual = 0.01217692403366695, No Iterations 2
smoothSolver:  Solving for Uy, Initial residual = 0.5459681399460747, Final residual = 0.01216142340819986, No Iterations 2
smoothSolver:  Solving for Uz, Initial residual = 0.5460511899866911, Final residual = 0.01216441792425214, No Iterations 2
[OGL LOG][Proc: 0]: global_index_init: 0.017 [ms]
[OGL LOG][Proc: 0]p_local_coeffs: call_update: 0 [ms]
[OGL LOG][Proc: 0]p_non_local_coeffs: call_update: 0 [ms]
[OGL LOG][Proc: 0]p: update_local_matrix_data: 241.06 [ms]
[OGL LOG][Proc: 0]p: update_non_local_matrix_data: 0.841 [ms]
[OGL LOG][Proc: 0]p_matrix: call_update: 4.101 [ms]
[OGL LOG][Proc: 0]p_rhs: call_update: 15.064 [ms]
[OGL LOG][Preconditioner.H:271] Generate preconditioner GISAI SparsityPower 1
[OGL LOG][Proc: 0]p: init_precond: 443.383 [ms]
[OGL LOG][StoppingCriterion.H:239] Creating stopping criterion with minIter 600 frequency 4
[OGL LOG][Proc: 0]p: generate_solver: 0.018 [ms]
[OGL LOG][Proc: 0]p: solve: 2971.049 [ms]
[OGL LOG][Proc: 0]p: copy_x_back: 18.045 [ms]
[OGL LOG][lduLduBase.H:330] 
Statistics:
	Time per iteration: 2968 [mu s]
	Time per residual norm calculation: 172.000000 [mu s]
	Time per iteration and DOF: 0.117645 [ns]
	Retrieve results bandwidth 2.798000 [GByte/s]
[OGL LOG][Proc: 0]p: solve_multi_gpu: 3455.032 [ms]
GISAIcudaGKOCG:  Solving for p, Initial residual = 0.9978559616013407, Final residual = 0.9978559616055196, No Iterations 1001
time step continuity errors : sum local = 3.415300462432474e+16, global = 98.68201010626542, cumulative = 361.2796777553409
smoothSolver:  Solving for nuTilda, Initial residual = 0.3687626406094566, Final residual = 0.0338639412814998, No Iterations 5
ExecutionTime = 3249.67 s  ClockTime = 3258 s

Time = 100

velocityDampingConstraint velocityDamping damped 683792 (2.71%) of cells, with max limit 300
smoothSolver:  Solving for Ux, Initial residual = 0.5377134691761369, Final residual = 0.0283262127736766, No Iterations 2
smoothSolver:  Solving for Uy, Initial residual = 0.5377511037552087, Final residual = 0.02833854541009402, No Iterations 2
smoothSolver:  Solving for Uz, Initial residual = 0.5377058663707192, Final residual = 0.02830669784842601, No Iterations 2
[OGL LOG][Proc: 0]: global_index_init: 0.02 [ms]
[OGL LOG][Proc: 0]p_local_coeffs: call_update: 0 [ms]
[OGL LOG][Proc: 0]p_non_local_coeffs: call_update: 0 [ms]
[OGL LOG][Proc: 0]p: update_local_matrix_data: 239.923 [ms]
[OGL LOG][Proc: 0]p: update_non_local_matrix_data: 0.8120000000000001 [ms]
[OGL LOG][Proc: 0]p_matrix: call_update: 4.167 [ms]
[OGL LOG][Proc: 0]p_rhs: call_update: 15.284 [ms]
[OGL LOG][Preconditioner.H:271] Generate preconditioner GISAI SparsityPower 1
[OGL LOG][Proc: 0]p: init_precond: 431.257 [ms]
[OGL LOG][StoppingCriterion.H:239] Creating stopping criterion with minIter 600 frequency 4
[OGL LOG][Proc: 0]p: generate_solver: 0.018 [ms]
[OGL LOG][Proc: 0]p: solve: 2979.763 [ms]
[OGL LOG][Proc: 0]p: copy_x_back: 17.783 [ms]
[OGL LOG][lduLduBase.H:330] 
Statistics:
	Time per iteration: 2976 [mu s]
	Time per residual norm calculation: 173.000000 [mu s]
	Time per iteration and DOF: 0.117962 [ns]
	Retrieve results bandwidth 2.840000 [GByte/s]
[OGL LOG][Proc: 0]p: solve_multi_gpu: 3451.644 [ms]
GISAIcudaGKOCG:  Solving for p, Initial residual = 0.996760240694719, Final residual = 0.9967602406928726, No Iterations 1001
time step continuity errors : sum local = 8.649079156840021e+16, global = 414.8345341504069, cumulative = 776.1142119057477
smoothSolver:  Solving for nuTilda, Initial residual = 0.3251254898181489, Final residual = 0.02982924773898949, No Iterations 3
bounding nuTilda, min: -0.03184438459929649 max: 8363378232600374 average: 53801991512.33484
ExecutionTime = 3278.72 s  ClockTime = 3287 s

End

Finalising parallel run
