/*---------------------------------------------------------------------------*\
| =========                 |                                                 |
| \\      /  F ield         | OpenFOAM: The Open Source CFD Toolbox           |
|  \\    /   O peration     | Version:  2306                                  |
|   \\  /    A nd           | Website:  www.openfoam.com                      |
|    \\/     M anipulation  |                                                 |
\*---------------------------------------------------------------------------*/
Build  : a6e826bd55-20230630 OPENFOAM=2306 version=v2306
Arch   : "LSB;label=32;scalar=64"
Exec   : simpleFoam -parallel -case /home/greole/data/code/exasim_project/micro_benchmarks/WindsorBody/workspace/76794f45b117f4c2a7f66199582281cf/case
Date   : Aug 02 2023
Time   : 14:07:25
Host   : nla-gpu2.ianm.kit.edu
PID    : 81956
I/O    : uncollated
Case   : /home/greole/data/code/exasim_project/micro_benchmarks/WindsorBody/workspace/76794f45b117f4c2a7f66199582281cf/case
nProcs : 32
Hosts  :
(
    (nla-gpu2.ianm.kit.edu 32)
)
Pstream initialized with:
    floatTransfer      : false
    nProcsSimpleSum    : 0
    nonBlockingExchange: 0 (tuning: 0)
    exchange algorithm : -1
    commsType          : nonBlocking
    polling iterations : 0
trapFpe: Floating point exception trapping enabled (FOAM_SIGFPE).
fileModificationChecking : Monitoring run-time modified files using timeStampMaster (fileModificationSkew 5, maxFileModificationPolls 20)
allowSystemOperations : Allowing user-supplied system call operations

// * * * * * * * * * * * * * * * * * * * * * * * * * * * * * * * * * * * * * //
Create time

--> FOAM Warning : 
    From void* Foam::dlLibraryTable::openLibrary(const Foam::fileName&, bool)
    in file db/dynamicLibrary/dlLibraryTable/dlLibraryTable.C at line 188
    Could not load "libpetscFoam.so"
libpetscFoam.so: cannot open shared object file: No such file or directory
Create mesh for time = 0


SIMPLE: convergence criteria
    field p	 tolerance 1e-08
    field U	 tolerance 1e-08
    field k	 tolerance 1e-08
    field omega	 tolerance 1e-08
    field nuTilda	 tolerance 1e-08

Reading field p

Reading field U

Reading/calculating face flux field phi

Selecting incompressible transport model Newtonian
Selecting turbulence model type RAS
Selecting RAS turbulence model SpalartAllmaras
Selecting patchDistMethod meshWave
ft2 term: inactive
RAS
{
    RASModel        SpalartAllmaras;
    turbulence      on;
    printCoeffs     on;
    sigmaNut        0.66666;
    kappa           0.41;
    Cb1             0.1355;
    Cb2             0.622;
    Cw2             0.3;
    Cw3             2;
    Cv1             7.1;
    Cs              0.3;
    ck              0.07000000000000001;
    ft2             false;
    Ct3             1.2;
    Ct4             0.5;
}

No MRF models present

Creating finite volume options from "system/fvOptions"

Selecting finite volume options type velocityDampingConstraint
    Source: velocityDamping
    - selecting all cells
    - selected 6307136 cell(s) with volume 27.82583051608611

Starting time loop

--> FOAM Warning : 
    From bool Foam::functionObjectList::read()
    in file db/functionObjects/functionObjectList/functionObjectList.C at line 1035
    Reading "system/controlDict" at line 2 to 41
    Entry 'lref' is not a dictionary
--> FOAM Warning : 
    From bool Foam::functionObjectList::read()
    in file db/functionObjects/functionObjectList/functionObjectList.C at line 1035
    Reading "system/controlDict" at line 2 to 41
    Entry 'Aref' is not a dictionary
--> FOAM Warning : 
    From bool Foam::functionObjectList::read()
    in file db/functionObjects/functionObjectList/functionObjectList.C at line 1035
    Reading "system/controlDict" at line 2 to 41
    Entry 'yawAngle' is not a dictionary
--> FOAM Warning : 
    From bool Foam::functionObjectList::read()
    in file db/functionObjects/functionObjectList/functionObjectList.C at line 1035
    Reading "system/controlDict" at line 2 to 41
    Entry 'lDomain' is not a dictionary
--> FOAM Warning : 
    From bool Foam::functionObjectList::read()
    in file db/functionObjects/functionObjectList/functionObjectList.C at line 1035
    Reading "system/controlDict" at line 2 to 41
    Entry 'bDomain' is not a dictionary
--> FOAM Warning : 
    From bool Foam::functionObjectList::read()
    in file db/functionObjects/functionObjectList/functionObjectList.C at line 1035
    Reading "system/controlDict" at line 2 to 41
    Entry 'hDomain' is not a dictionary
--> FOAM Warning : 
    From bool Foam::functionObjectList::read()
    in file db/functionObjects/functionObjectList/functionObjectList.C at line 1035
    Reading "system/controlDict" at line 2 to 41
    Entry 'xCenter' is not a dictionary
--> FOAM Warning : 
    From bool Foam::functionObjectList::read()
    in file db/functionObjects/functionObjectList/functionObjectList.C at line 1035
    Reading "system/controlDict" at line 2 to 41
    Entry 'yCenter' is not a dictionary
--> FOAM Warning : 
    From bool Foam::functionObjectList::read()
    in file db/functionObjects/functionObjectList/functionObjectList.C at line 1035
    Reading "system/controlDict" at line 2 to 41
    Entry 'zCenter' is not a dictionary
--> FOAM Warning : 
    From bool Foam::functionObjectList::read()
    in file db/functionObjects/functionObjectList/functionObjectList.C at line 1035
    Reading "system/controlDict" at line 2 to 41
    Entry 'inletPatch' is not a dictionary
--> FOAM Warning : 
    From bool Foam::functionObjectList::read()
    in file db/functionObjects/functionObjectList/functionObjectList.C at line 1035
    Reading "system/controlDict" at line 2 to 41
    Entry 'outletPatch' is not a dictionary
--> FOAM Warning : 
    From bool Foam::functionObjectList::read()
    in file db/functionObjects/functionObjectList/functionObjectList.C at line 1035
    Reading "system/controlDict" at line 2 to 41
    Entry 'wallPatches' is not a dictionary
--> FOAM Warning : 
    From bool Foam::functionObjectList::read()
    in file db/functionObjects/functionObjectList/functionObjectList.C at line 1035
    Reading "system/controlDict" at line 2 to 41
    Entry 'forcesWallPatches' is not a dictionary
--> FOAM Warning : 
    From bool Foam::functionObjectList::read()
    in file db/functionObjects/functionObjectList/functionObjectList.C at line 1035
    Reading "system/controlDict" at line 2 to 41
    Entry 'symmPatches' is not a dictionary
--> FOAM Warning : 
    From bool Foam::functionObjectList::read()
    in file db/functionObjects/functionObjectList/functionObjectList.C at line 1035
    Reading "system/controlDict" at line 2 to 41
    Entry 'Uinf' is not a dictionary
--> FOAM Warning : 
    From bool Foam::functionObjectList::read()
    in file db/functionObjects/functionObjectList/functionObjectList.C at line 1035
    Reading "system/controlDict" at line 2 to 41
    Entry 'UinfMag' is not a dictionary
--> FOAM Warning : 
    From bool Foam::functionObjectList::read()
    in file db/functionObjects/functionObjectList/functionObjectList.C at line 1035
    Reading "system/controlDict" at line 2 to 41
    Entry 'nu' is not a dictionary
--> FOAM Warning : 
    From bool Foam::functionObjectList::read()
    in file db/functionObjects/functionObjectList/functionObjectList.C at line 1035
    Reading "system/controlDict" at line 2 to 41
    Entry 'pref' is not a dictionary
--> FOAM Warning : 
    From bool Foam::functionObjectList::read()
    in file db/functionObjects/functionObjectList/functionObjectList.C at line 1035
    Reading "system/controlDict" at line 2 to 41
    Entry 'viscRatio' is not a dictionary
--> FOAM Warning : 
    From bool Foam::functionObjectList::read()
    in file db/functionObjects/functionObjectList/functionObjectList.C at line 1035
    Reading "system/controlDict" at line 2 to 41
    Entry 'Tu' is not a dictionary
--> FOAM Warning : 
    From bool Foam::functionObjectList::read()
    in file db/functionObjects/functionObjectList/functionObjectList.C at line 1035
    Reading "system/controlDict" at line 2 to 41
    Entry 'LESturbModel' is not a dictionary
--> FOAM Warning : 
    From bool Foam::functionObjectList::read()
    in file db/functionObjects/functionObjectList/functionObjectList.C at line 1035
    Reading "system/controlDict" at line 2 to 41
    Entry 'RASturbModel' is not a dictionary
--> FOAM Warning : 
    From bool Foam::functionObjectList::read()
    in file db/functionObjects/functionObjectList/functionObjectList.C at line 1035
    Reading "system/controlDict" at line 2 to 41
    Entry 'deltaTurb' is not a dictionary
--> FOAM Warning : 
    From bool Foam::functionObjectList::read()
    in file db/functionObjects/functionObjectList/functionObjectList.C at line 1035
    Reading "system/controlDict" at line 2 to 41
    Entry 'dt' is not a dictionary
--> FOAM Warning : 
    From bool Foam::functionObjectList::read()
    in file db/functionObjects/functionObjectList/functionObjectList.C at line 1035
    Reading "system/controlDict" at line 2 to 41
    Entry 'tAvg' is not a dictionary
--> FOAM Warning : 
    From bool Foam::functionObjectList::read()
    in file db/functionObjects/functionObjectList/functionObjectList.C at line 1035
    Reading "system/controlDict" at line 2 to 41
    Entry 'tEnd' is not a dictionary
--> FOAM Warning : 
    From bool Foam::functionObjectList::read()
    in file db/functionObjects/functionObjectList/functionObjectList.C at line 1035
    Reading "system/controlDict" at line 2 to 41
    Entry 'writeInterval_' is not a dictionary
--> FOAM Warning : 
    From bool Foam::functionObjectList::read()
    in file db/functionObjects/functionObjectList/functionObjectList.C at line 1035
    Reading "system/controlDict" at line 2 to 41
    Entry 'nCores' is not a dictionary
--> FOAM Warning : 
    From bool Foam::functionObjectList::read()
    in file db/functionObjects/functionObjectList/functionObjectList.C at line 1035
    Reading "system/controlDict" at line 2 to 41
    Entry 'interpScheme' is not a dictionary
--> FOAM Warning : 
    From bool Foam::functionObjectList::read()
    in file db/functionObjects/functionObjectList/functionObjectList.C at line 1035
    Reading "system/controlDict" at line 2 to 41
    Entry 'probeField' is not a dictionary
wallShearStress wallShearStress:
    processing wall patches: 
        Windsor_Body
        CFDWT_Floor
        Windsor_Pins
        Windsor_Base

pressure calc_cp:
    Operating mode: staticCoeff
    Not including hydrostatic effects

forceCoeffs forceCoeffsAll:
    rho: rhoInf
    Freestream density (rhoInf) set to 1
    Not including porosity effects
    magUInf: 40
    lRef   : 0.6375
    Aref   : 0.1124
    rhoInf : 1
    Selecting all coefficients
    - Drag force: Cd
    - Drag force front: Cd(f)
    - Drag force rear: Cd(r)
    - Lift force: Cl
    - Lift force front: Cl(f)
    - Lift force rear: Cl(r)
    - Pitch moment: CmPitch
    - Roll moment: CmRoll
    - Yaw moment: CmYaw
    - Side force: Cs
    - Side force front: Cs(f)
    - Side force rear: Cs(r)


forceCoeffs dragCoeffBase:
    rho: rhoInf
    Freestream density (rhoInf) set to 1
    Not including porosity effects
    magUInf: 40
    lRef   : 0.6375
    Aref   : 0.1124
    rhoInf : 1
    Selecting coefficients:
    - Drag force: Cd


Time = 1

velocityDampingConstraint velocityDamping damped 0 (0%) of cells, with max limit 300
[INFO] MatrixAssemblyU: 481.873 [ms]
smoothSolver:  Solving for Ux, Initial residual = 0.9999999999990106, Final residual = 0.08740394529067033, No Iterations 15
smoothSolver:  Solving for Uy, Initial residual = 1, Final residual = 0.08989488380680079, No Iterations 31
smoothSolver:  Solving for Uz, Initial residual = 1, Final residual = 0.03329925895369379, No Iterations 2
[INFO] MomentumPredictor: 464.458 [ms]
[INFO] MatrixAssemblyPI: 77.223 [ms]
[INFO] MatrixAssemblyPII: 36.751 [ms]
GAMG:  Solving for p, Initial residual = 1, Final residual = 0.009065659636840027, No Iterations 32
[INFO] SolveP: 1390.244 [ms]
time step continuity errors : sum local = 0.003326224816227708, global = 2.657591528301675e-05, cumulative = 2.657591528301675e-05
[INFO] postSolveP: 19.554 [ms]
smoothSolver:  Solving for nuTilda, Initial residual = 0.9999999998000944, Final residual = 0.06435186423876273, No Iterations 3
[INFO] TimeStep: 2743.73 [ms]
ExecutionTime = 8.35 s  ClockTime = 9 s

--> FOAM Warning : 
    From virtual bool Foam::functionObjects::fieldSelection::checkSelection()
    in file functionObjects/fieldSelections/fieldSelection/fieldSelection.C at line 166
    Field k not found
--> FOAM Warning : 
    From virtual bool Foam::functionObjects::fieldSelection::checkSelection()
    in file functionObjects/fieldSelections/fieldSelection/fieldSelection.C at line 166
    Field gammaInt not found
--> FOAM Warning : 
    From virtual bool Foam::functionObjects::fieldSelection::checkSelection()
    in file functionObjects/fieldSelections/fieldSelection/fieldSelection.C at line 166
    Field omega not found
--> FOAM Warning : 
    From virtual bool Foam::functionObjects::fieldSelection::checkSelection()
    in file functionObjects/fieldSelections/fieldSelection/fieldSelection.C at line 166
    Field ReThetat not found
--> FOAM Warning : 
    From virtual bool Foam::functionObjects::fieldSelection::checkSelection()
    in file functionObjects/fieldSelections/fieldSelection/fieldSelection.C at line 166
    Field epsilon not found
--> FOAM Warning : 
    From virtual bool Foam::functionObjects::solverFieldSelection::updateSelection()
    in file functionObjects/fieldSelections/solverFieldSelection/solverFieldSelection.C at line 85
    Valid solver fields are: 3(U nuTilda p)Time = 2

velocityDampingConstraint velocityDamping damped 0 (0%) of cells, with max limit 300
[INFO] MatrixAssemblyU: 439.189 [ms]
smoothSolver:  Solving for Ux, Initial residual = 0.2130472869375944, Final residual = 0.01845622779296247, No Iterations 13
smoothSolver:  Solving for Uy, Initial residual = 0.3553508466455244, Final residual = 0.03328301050182753, No Iterations 13
smoothSolver:  Solving for Uz, Initial residual = 0.3289216181949279, Final residual = 0.02816611571227286, No Iterations 13
[INFO] MomentumPredictor: 385.676 [ms]
[INFO] MatrixAssemblyPI: 77.624 [ms]
[INFO] MatrixAssemblyPII: 36.984 [ms]
GAMG:  Solving for p, Initial residual = 0.2098609730866146, Final residual = 0.001406675701954951, No Iterations 15
[INFO] SolveP: 598.976 [ms]
time step continuity errors : sum local = 0.02879681580546184, global = -1.381420698832848e-05, cumulative = 1.276170829468828e-05
[INFO] postSolveP: 19.243 [ms]
smoothSolver:  Solving for nuTilda, Initial residual = 0.4058800209199879, Final residual = 0.0253766586923146, No Iterations 1
[INFO] TimeStep: 1821.154 [ms]
ExecutionTime = 10.53 s  ClockTime = 11 s

Time = 3

velocityDampingConstraint velocityDamping damped 830 (0.01%) of cells, with max limit 300
[INFO] MatrixAssemblyU: 450.15 [ms]
smoothSolver:  Solving for Ux, Initial residual = 0.1246475273980532, Final residual = 0.01183494328079209, No Iterations 9
smoothSolver:  Solving for Uy, Initial residual = 0.205064132348258, Final residual = 0.01991895850875856, No Iterations 10
smoothSolver:  Solving for Uz, Initial residual = 0.217185150214049, Final residual = 0.0214657335927691, No Iterations 9
[INFO] MomentumPredictor: 296.434 [ms]
[INFO] MatrixAssemblyPI: 77.581 [ms]
[INFO] MatrixAssemblyPII: 36.858 [ms]
GAMG:  Solving for p, Initial residual = 0.1141039426340783, Final residual = 0.0006857654987822534, No Iterations 17
[INFO] SolveP: 674.1900000000001 [ms]
time step continuity errors : sum local = 0.00794827609228488, global = -0.0001998845841775815, cumulative = -0.0001871228758828932
[INFO] postSolveP: 19.145 [ms]
smoothSolver:  Solving for nuTilda, Initial residual = 0.208779741198618, Final residual = 0.01316639900960358, No Iterations 2
[INFO] TimeStep: 1824.199 [ms]
ExecutionTime = 12.69 s  ClockTime = 13 s

Time = 4

velocityDampingConstraint velocityDamping damped 0 (0%) of cells, with max limit 300
[INFO] MatrixAssemblyU: 450.083 [ms]
smoothSolver:  Solving for Ux, Initial residual = 0.05426199922911178, Final residual = 0.004970243525014201, No Iterations 11
smoothSolver:  Solving for Uy, Initial residual = 0.1221333662493244, Final residual = 0.01089150749783608, No Iterations 11
smoothSolver:  Solving for Uz, Initial residual = 0.1316829030916116, Final residual = 0.01281693925521987, No Iterations 10
[INFO] MomentumPredictor: 329.172 [ms]
[INFO] MatrixAssemblyPI: 78.898 [ms]
[INFO] MatrixAssemblyPII: 36.888 [ms]
GAMG:  Solving for p, Initial residual = 0.1379856483332683, Final residual = 0.001261406143041431, No Iterations 8
[INFO] SolveP: 332.315 [ms]
time step continuity errors : sum local = 0.01231218340215027, global = 7.149694403984752e-05, cumulative = -0.0001156259318430457
[INFO] postSolveP: 19.699 [ms]
smoothSolver:  Solving for nuTilda, Initial residual = 0.1251001115099052, Final residual = 0.0105016796718797, No Iterations 2
[INFO] TimeStep: 1519.161 [ms]
ExecutionTime = 14.56 s  ClockTime = 15 s

Time = 5

velocityDampingConstraint velocityDamping damped 116 (0%) of cells, with max limit 300
[INFO] MatrixAssemblyU: 450.688 [ms]
smoothSolver:  Solving for Ux, Initial residual = 0.04401803629466888, Final residual = 0.004211723190146744, No Iterations 10
smoothSolver:  Solving for Uy, Initial residual = 0.09743964968055338, Final residual = 0.009159722645659616, No Iterations 11
smoothSolver:  Solving for Uz, Initial residual = 0.1130594955660428, Final residual = 0.01115656428988466, No Iterations 10
[INFO] MomentumPredictor: 320.598 [ms]
[INFO] MatrixAssemblyPI: 78.28 [ms]
[INFO] MatrixAssemblyPII: 36.915 [ms]
GAMG:  Solving for p, Initial residual = 0.1079290835992951, Final residual = 0.0009807038237478688, No Iterations 11
[INFO] SolveP: 444.696 [ms]
time step continuity errors : sum local = 0.006987496931232992, global = 0.000428219607174134, cumulative = 0.0003125936753310884
[INFO] postSolveP: 19.644 [ms]
smoothSolver:  Solving for nuTilda, Initial residual = 0.07090882217311992, Final residual = 0.004313717195118172, No Iterations 3
[INFO] TimeStep: 1629.418 [ms]
ExecutionTime = 16.53 s  ClockTime = 17 s

Time = 6

velocityDampingConstraint velocityDamping damped 0 (0%) of cells, with max limit 300
[INFO] MatrixAssemblyU: 450.307 [ms]
smoothSolver:  Solving for Ux, Initial residual = 0.02992616977952543, Final residual = 0.002666377712257865, No Iterations 12
smoothSolver:  Solving for Uy, Initial residual = 0.07526462427516861, Final residual = 0.006960286766723521, No Iterations 12
smoothSolver:  Solving for Uz, Initial residual = 0.08148531969922362, Final residual = 0.007000061124067862, No Iterations 12
[INFO] MomentumPredictor: 362.442 [ms]
[INFO] MatrixAssemblyPI: 77.371 [ms]
[INFO] MatrixAssemblyPII: 37.105 [ms]
GAMG:  Solving for p, Initial residual = 0.09427836168821621, Final residual = 0.000690714993199306, No Iterations 11
[INFO] SolveP: 441.338 [ms]
time step continuity errors : sum local = 0.005197002388844791, global = 0.0001818087147544712, cumulative = 0.0004944023900855596
[INFO] postSolveP: 19.81 [ms]
smoothSolver:  Solving for nuTilda, Initial residual = 0.06443072938622721, Final residual = 0.006430953665895254, No Iterations 2
[INFO] TimeStep: 1658.761 [ms]
ExecutionTime = 18.54 s  ClockTime = 19 s

Time = 7

velocityDampingConstraint velocityDamping damped 13 (0%) of cells, with max limit 300
[INFO] MatrixAssemblyU: 448.566 [ms]
smoothSolver:  Solving for Ux, Initial residual = 0.0271464892355161, Final residual = 0.002425922814200379, No Iterations 12
smoothSolver:  Solving for Uy, Initial residual = 0.06834351116732504, Final residual = 0.00648865908221398, No Iterations 12
smoothSolver:  Solving for Uz, Initial residual = 0.07174554209917799, Final residual = 0.006293662860206286, No Iterations 12
[INFO] MomentumPredictor: 360.558 [ms]
[INFO] MatrixAssemblyPI: 77.336 [ms]
[INFO] MatrixAssemblyPII: 36.785 [ms]
GAMG:  Solving for p, Initial residual = 0.08022867643051175, Final residual = 0.0007178364067589799, No Iterations 9
[INFO] SolveP: 364.448 [ms]
time step continuity errors : sum local = 0.005433879629747319, global = -0.0001070836199795651, cumulative = 0.0003873187701059944
[INFO] postSolveP: 19.195 [ms]
smoothSolver:  Solving for nuTilda, Initial residual = 0.04948655519554365, Final residual = 0.003237580615964932, No Iterations 3
[INFO] TimeStep: 1583.716 [ms]
ExecutionTime = 20.46 s  ClockTime = 21 s

Time = 8

velocityDampingConstraint velocityDamping damped 0 (0%) of cells, with max limit 300
[INFO] MatrixAssemblyU: 449.357 [ms]
smoothSolver:  Solving for Ux, Initial residual = 0.02313343949224802, Final residual = 0.002147808849852866, No Iterations 12
smoothSolver:  Solving for Uy, Initial residual = 0.06087898101126277, Final residual = 0.005979975631754197, No Iterations 12
smoothSolver:  Solving for Uz, Initial residual = 0.06230136434727733, Final residual = 0.005655213739116852, No Iterations 12
[INFO] MomentumPredictor: 361.739 [ms]
[INFO] MatrixAssemblyPI: 78.548 [ms]
[INFO] MatrixAssemblyPII: 36.677 [ms]
GAMG:  Solving for p, Initial residual = 0.07260444854720394, Final residual = 0.0006864581860265384, No Iterations 9
[INFO] SolveP: 365.278 [ms]
time step continuity errors : sum local = 0.005292957536382345, global = -0.0002339816612845262, cumulative = 0.0001533371088214682
[INFO] postSolveP: 18.822 [ms]
smoothSolver:  Solving for nuTilda, Initial residual = 0.06595255027469821, Final residual = 0.005892404841078638, No Iterations 2
[INFO] TimeStep: 1579.158 [ms]
ExecutionTime = 22.39 s  ClockTime = 23 s

Time = 9

velocityDampingConstraint velocityDamping damped 0 (0%) of cells, with max limit 300
[INFO] MatrixAssemblyU: 447.41 [ms]
smoothSolver:  Solving for Ux, Initial residual = 0.02034216060929469, Final residual = 0.001906632087875199, No Iterations 12
smoothSolver:  Solving for Uy, Initial residual = 0.05482542539513906, Final residual = 0.005476248122692759, No Iterations 12
smoothSolver:  Solving for Uz, Initial residual = 0.05533130056060002, Final residual = 0.00515158931528883, No Iterations 12
[INFO] MomentumPredictor: 362.876 [ms]
[INFO] MatrixAssemblyPI: 78.733 [ms]
[INFO] MatrixAssemblyPII: 37.308 [ms]
GAMG:  Solving for p, Initial residual = 0.06692652228782896, Final residual = 0.0005506595102458078, No Iterations 9
[INFO] SolveP: 366.954 [ms]
time step continuity errors : sum local = 0.004257551196528708, global = -0.0001752905387642172, cumulative = -2.195342994274898e-05
[INFO] postSolveP: 19.133 [ms]
smoothSolver:  Solving for nuTilda, Initial residual = 0.04447158010899835, Final residual = 0.003228516718728746, No Iterations 3
[INFO] TimeStep: 1589.076 [ms]
ExecutionTime = 24.32 s  ClockTime = 25 s

Time = 10

velocityDampingConstraint velocityDamping damped 0 (0%) of cells, with max limit 300
[INFO] MatrixAssemblyU: 446.382 [ms]
smoothSolver:  Solving for Ux, Initial residual = 0.01833109542393515, Final residual = 0.001731441566305241, No Iterations 12
smoothSolver:  Solving for Uy, Initial residual = 0.05059469792509635, Final residual = 0.005040216339073163, No Iterations 12
smoothSolver:  Solving for Uz, Initial residual = 0.05058606575021934, Final residual = 0.004776826587036856, No Iterations 12
[INFO] MomentumPredictor: 362.74 [ms]
[INFO] MatrixAssemblyPI: 78.06699999999999 [ms]
[INFO] MatrixAssemblyPII: 36.884 [ms]
GAMG:  Solving for p, Initial residual = 0.06140523402387781, Final residual = 0.0004755557304120758, No Iterations 9
[INFO] SolveP: 364.305 [ms]
time step continuity errors : sum local = 0.003628063770631707, global = -4.203032331529319e-05, cumulative = -6.398375325804216e-05
[INFO] postSolveP: 18.892 [ms]
smoothSolver:  Solving for nuTilda, Initial residual = 0.07003615034350233, Final residual = 0.005534141778454164, No Iterations 2
[INFO] TimeStep: 1575.462 [ms]
ExecutionTime = 26.23 s  ClockTime = 27 s

Time = 11

velocityDampingConstraint velocityDamping damped 0 (0%) of cells, with max limit 300
[INFO] MatrixAssemblyU: 445.054 [ms]
smoothSolver:  Solving for Ux, Initial residual = 0.01668255266171443, Final residual = 0.001607910659822318, No Iterations 12
smoothSolver:  Solving for Uy, Initial residual = 0.04768393049837861, Final residual = 0.004724586325090751, No Iterations 12
smoothSolver:  Solving for Uz, Initial residual = 0.04731632123158303, Final residual = 0.004507540155807164, No Iterations 12
[INFO] MomentumPredictor: 362.362 [ms]
[INFO] MatrixAssemblyPI: 78.276 [ms]
[INFO] MatrixAssemblyPII: 36.908 [ms]
GAMG:  Solving for p, Initial residual = 0.05718272555064522, Final residual = 0.0005614459146136263, No Iterations 8
[INFO] SolveP: 326.754 [ms]
time step continuity errors : sum local = 0.004286625997237482, global = 7.356793884631128e-05, cumulative = 9.584185588269113e-06
[INFO] postSolveP: 19.263 [ms]
smoothSolver:  Solving for nuTilda, Initial residual = 0.03935170678526506, Final residual = 0.003055180377489899, No Iterations 3
[INFO] TimeStep: 1544.099 [ms]
ExecutionTime = 28.12 s  ClockTime = 29 s

Time = 12

velocityDampingConstraint velocityDamping damped 0 (0%) of cells, with max limit 300
[INFO] MatrixAssemblyU: 445.979 [ms]
smoothSolver:  Solving for Ux, Initial residual = 0.01554975250264433, Final residual = 0.001520788657523802, No Iterations 12
smoothSolver:  Solving for Uy, Initial residual = 0.04559357739948673, Final residual = 0.004484985093961079, No Iterations 12
smoothSolver:  Solving for Uz, Initial residual = 0.04487372892717731, Final residual = 0.004294248739536157, No Iterations 12
[INFO] MomentumPredictor: 362.018 [ms]
[INFO] MatrixAssemblyPI: 77.675 [ms]
[INFO] MatrixAssemblyPII: 36.507 [ms]
GAMG:  Solving for p, Initial residual = 0.05335183471963215, Final residual = 0.0004680782247681942, No Iterations 9
[INFO] SolveP: 365.074 [ms]
time step continuity errors : sum local = 0.003593768300769045, global = 0.0001170882588683116, cumulative = 0.0001266724444565807
[INFO] postSolveP: 19.696 [ms]
smoothSolver:  Solving for nuTilda, Initial residual = 0.0658818655894384, Final residual = 0.005139352622863019, No Iterations 2
[INFO] TimeStep: 1577.482 [ms]
ExecutionTime = 30.04 s  ClockTime = 31 s

Time = 13

velocityDampingConstraint velocityDamping damped 0 (0%) of cells, with max limit 300
[INFO] MatrixAssemblyU: 445.441 [ms]
smoothSolver:  Solving for Ux, Initial residual = 0.01452950271762955, Final residual = 0.001447166890659819, No Iterations 12
smoothSolver:  Solving for Uy, Initial residual = 0.04389820109449403, Final residual = 0.004296845493425668, No Iterations 12
smoothSolver:  Solving for Uz, Initial residual = 0.04305441526677053, Final residual = 0.004148363883561175, No Iterations 12
[INFO] MomentumPredictor: 363.229 [ms]
[INFO] MatrixAssemblyPI: 77.221 [ms]
[INFO] MatrixAssemblyPII: 36.776 [ms]
GAMG:  Solving for p, Initial residual = 0.04991032820601607, Final residual = 0.0004108979423153161, No Iterations 9
[INFO] SolveP: 364.411 [ms]
time step continuity errors : sum local = 0.003178569325219677, global = 9.581966842823075e-05, cumulative = 0.0002224921128848115
[INFO] postSolveP: 19.095 [ms]
smoothSolver:  Solving for nuTilda, Initial residual = 0.0347634204022773, Final residual = 0.002854319554474065, No Iterations 3
[INFO] TimeStep: 1583.332 [ms]
ExecutionTime = 31.95 s  ClockTime = 33 s

Time = 14

velocityDampingConstraint velocityDamping damped 0 (0%) of cells, with max limit 300
[INFO] MatrixAssemblyU: 445.635 [ms]
smoothSolver:  Solving for Ux, Initial residual = 0.01369573950046309, Final residual = 0.001175661107448035, No Iterations 13
smoothSolver:  Solving for Uy, Initial residual = 0.04192585760079077, Final residual = 0.004121445654308243, No Iterations 12
smoothSolver:  Solving for Uz, Initial residual = 0.04201622235318087, Final residual = 0.004063145561635538, No Iterations 12
[INFO] MomentumPredictor: 371.064 [ms]
[INFO] MatrixAssemblyPI: 78.55500000000001 [ms]
[INFO] MatrixAssemblyPII: 37.002 [ms]
GAMG:  Solving for p, Initial residual = 0.04730822725597442, Final residual = 0.0004022076829221008, No Iterations 8
[INFO] SolveP: 325.535 [ms]
time step continuity errors : sum local = 0.003134104883593743, global = 4.601479135615718e-05, cumulative = 0.0002685069042409687
[INFO] postSolveP: 19.029 [ms]
smoothSolver:  Solving for nuTilda, Initial residual = 0.05853711573989525, Final residual = 0.004827770410637621, No Iterations 2
[INFO] TimeStep: 1544.97 [ms]
ExecutionTime = 33.84 s  ClockTime = 34 s

Time = 15

velocityDampingConstraint velocityDamping damped 0 (0%) of cells, with max limit 300
[INFO] MatrixAssemblyU: 444.995 [ms]
smoothSolver:  Solving for Ux, Initial residual = 0.01282316291684935, Final residual = 0.001112395231794653, No Iterations 13
smoothSolver:  Solving for Uy, Initial residual = 0.04038049539757485, Final residual = 0.004001468629688911, No Iterations 12
smoothSolver:  Solving for Uz, Initial residual = 0.04163403764076518, Final residual = 0.004054262297349405, No Iterations 12
[INFO] MomentumPredictor: 369.163 [ms]
[INFO] MatrixAssemblyPI: 78.22199999999999 [ms]
[INFO] MatrixAssemblyPII: 36.887 [ms]
GAMG:  Solving for p, Initial residual = 0.04564188860639855, Final residual = 0.0003930800399737359, No Iterations 8
[INFO] SolveP: 325.017 [ms]
time step continuity errors : sum local = 0.003082419991999554, global = -4.592447642151425e-06, cumulative = 0.0002639144565988173
[INFO] postSolveP: 19.191 [ms]
smoothSolver:  Solving for nuTilda, Initial residual = 0.03116778252825103, Final residual = 0.002683278838658728, No Iterations 3
[INFO] TimeStep: 1549.286 [ms]
ExecutionTime = 35.74 s  ClockTime = 36 s

Time = 16

velocityDampingConstraint velocityDamping damped 0 (0%) of cells, with max limit 300
[INFO] MatrixAssemblyU: 445.01 [ms]
smoothSolver:  Solving for Ux, Initial residual = 0.01218614555111808, Final residual = 0.001056610146867018, No Iterations 13
smoothSolver:  Solving for Uy, Initial residual = 0.03942136233905234, Final residual = 0.003927678730224723, No Iterations 12
smoothSolver:  Solving for Uz, Initial residual = 0.04157455285343463, Final residual = 0.004060206362797701, No Iterations 12
[INFO] MomentumPredictor: 370.549 [ms]
[INFO] MatrixAssemblyPI: 77.979 [ms]
[INFO] MatrixAssemblyPII: 36.95 [ms]
GAMG:  Solving for p, Initial residual = 0.04431462509673701, Final residual = 0.0003722235686060347, No Iterations 8
[INFO] SolveP: 327.352 [ms]
time step continuity errors : sum local = 0.002930047558588397, global = -3.58030178230092e-05, cumulative = 0.0002281114387758081
[INFO] postSolveP: 18.971 [ms]
smoothSolver:  Solving for nuTilda, Initial residual = 0.05195243966303786, Final residual = 0.004573023794244358, No Iterations 2
[INFO] TimeStep: 1544.622 [ms]
ExecutionTime = 37.62 s  ClockTime = 38 s

Time = 17

velocityDampingConstraint velocityDamping damped 0 (0%) of cells, with max limit 300
[INFO] MatrixAssemblyU: 444.765 [ms]
smoothSolver:  Solving for Ux, Initial residual = 0.01156174009306082, Final residual = 0.001008040211297275, No Iterations 13
smoothSolver:  Solving for Uy, Initial residual = 0.03884782714201035, Final residual = 0.003312699137193363, No Iterations 13
smoothSolver:  Solving for Uz, Initial residual = 0.04152675489696833, Final residual = 0.004064346205674324, No Iterations 12
[INFO] MomentumPredictor: 379.967 [ms]
[INFO] MatrixAssemblyPI: 76.852 [ms]
[INFO] MatrixAssemblyPII: 36.633 [ms]
GAMG:  Solving for p, Initial residual = 0.043865285126297, Final residual = 0.0003529781089004859, No Iterations 8
[INFO] SolveP: 325.029 [ms]
time step continuity errors : sum local = 0.002795186672328824, global = -4.18073279338573e-05, cumulative = 0.0001863041108419508
[INFO] postSolveP: 19.121 [ms]
smoothSolver:  Solving for nuTilda, Initial residual = 0.02852641698484465, Final residual = 0.002531910895167413, No Iterations 3
[INFO] TimeStep: 1560.757 [ms]
ExecutionTime = 39.52 s  ClockTime = 40 s

Time = 18

velocityDampingConstraint velocityDamping damped 0 (0%) of cells, with max limit 300
[INFO] MatrixAssemblyU: 445.966 [ms]
smoothSolver:  Solving for Ux, Initial residual = 0.01122374986840711, Final residual = 0.000968812591205545, No Iterations 13
smoothSolver:  Solving for Uy, Initial residual = 0.03858245479708503, Final residual = 0.003299707827166143, No Iterations 13
smoothSolver:  Solving for Uz, Initial residual = 0.04177997658182581, Final residual = 0.004075305962424914, No Iterations 12
[INFO] MomentumPredictor: 378.207 [ms]
[INFO] MatrixAssemblyPI: 77.791 [ms]
[INFO] MatrixAssemblyPII: 37.049 [ms]
GAMG:  Solving for p, Initial residual = 0.04375649176999554, Final residual = 0.000348854511894812, No Iterations 8
[INFO] SolveP: 327.082 [ms]
time step continuity errors : sum local = 0.002778024988205676, global = -2.345758067171003e-05, cumulative = 0.0001628465301702407
[INFO] postSolveP: 18.711 [ms]
smoothSolver:  Solving for nuTilda, Initial residual = 0.0465869451750431, Final residual = 0.004318505422794446, No Iterations 2
[INFO] TimeStep: 1554.681 [ms]
ExecutionTime = 41.41 s  ClockTime = 42 s

Time = 19

velocityDampingConstraint velocityDamping damped 0 (0%) of cells, with max limit 300
[INFO] MatrixAssemblyU: 445.737 [ms]
smoothSolver:  Solving for Ux, Initial residual = 0.01086781310271973, Final residual = 0.0009379117883792278, No Iterations 13
smoothSolver:  Solving for Uy, Initial residual = 0.03890340620708136, Final residual = 0.003327556773645299, No Iterations 13
smoothSolver:  Solving for Uz, Initial residual = 0.04249744109445969, Final residual = 0.00411791516551883, No Iterations 12
[INFO] MomentumPredictor: 379.089 [ms]
[INFO] MatrixAssemblyPI: 77.81 [ms]
[INFO] MatrixAssemblyPII: 36.688 [ms]
GAMG:  Solving for p, Initial residual = 0.0439949723345587, Final residual = 0.0003616444395018928, No Iterations 8
[INFO] SolveP: 326.281 [ms]
time step continuity errors : sum local = 0.002897441945526115, global = 3.116327681805894e-06, cumulative = 0.0001659628578520466
[INFO] postSolveP: 19.33 [ms]
smoothSolver:  Solving for nuTilda, Initial residual = 0.026530531486578, Final residual = 0.002380781238342419, No Iterations 3
[INFO] TimeStep: 1562.545 [ms]
ExecutionTime = 43.32 s  ClockTime = 44 s

Time = 20

velocityDampingConstraint velocityDamping damped 0 (0%) of cells, with max limit 300
[INFO] MatrixAssemblyU: 446.291 [ms]
smoothSolver:  Solving for Ux, Initial residual = 0.01069420250552046, Final residual = 0.0009182562790399946, No Iterations 13
smoothSolver:  Solving for Uy, Initial residual = 0.03933610341703846, Final residual = 0.003932669305375672, No Iterations 12
smoothSolver:  Solving for Uz, Initial residual = 0.04310181490029344, Final residual = 0.004150995279954158, No Iterations 12
[INFO] MomentumPredictor: 369.485 [ms]
[INFO] MatrixAssemblyPI: 78.099 [ms]
[INFO] MatrixAssemblyPII: 36.899 [ms]
GAMG:  Solving for p, Initial residual = 0.04393804864312755, Final residual = 0.0003828044439180926, No Iterations 8
[INFO] SolveP: 325.815 [ms]
time step continuity errors : sum local = 0.003094970330250814, global = 2.711358816723921e-05, cumulative = 0.0001930764460192859
[INFO] postSolveP: 19.053 [ms]
smoothSolver:  Solving for nuTilda, Initial residual = 0.04203232854697529, Final residual = 0.004062734025997963, No Iterations 2
[INFO] TimeStep: 1543.961 [ms]
ExecutionTime = 45.21 s  ClockTime = 46 s

Time = 21

velocityDampingConstraint velocityDamping damped 0 (0%) of cells, with max limit 300
[INFO] MatrixAssemblyU: 446.436 [ms]
smoothSolver:  Solving for Ux, Initial residual = 0.01048474470102874, Final residual = 0.000904224798488707, No Iterations 13
smoothSolver:  Solving for Uy, Initial residual = 0.03999672206217025, Final residual = 0.003982719831634993, No Iterations 12
smoothSolver:  Solving for Uz, Initial residual = 0.04341999880485493, Final residual = 0.00414781934210943, No Iterations 12
[INFO] MomentumPredictor: 369.231 [ms]
[INFO] MatrixAssemblyPI: 77.583 [ms]
[INFO] MatrixAssemblyPII: 36.916 [ms]
GAMG:  Solving for p, Initial residual = 0.04398844855460733, Final residual = 0.0004090550787173157, No Iterations 8
[INFO] SolveP: 325.988 [ms]
time step continuity errors : sum local = 0.003347849247166178, global = 4.410120561626823e-05, cumulative = 0.0002371776516355541
[INFO] postSolveP: 19.135 [ms]
smoothSolver:  Solving for nuTilda, Initial residual = 0.0248627258707462, Final residual = 0.002233169622915537, No Iterations 3
[INFO] TimeStep: 1552.406 [ms]
ExecutionTime = 47.09 s  ClockTime = 48 s

Time = 22

velocityDampingConstraint velocityDamping damped 0 (0%) of cells, with max limit 300
[INFO] MatrixAssemblyU: 446.079 [ms]
smoothSolver:  Solving for Ux, Initial residual = 0.01045591670488714, Final residual = 0.0008927585055791278, No Iterations 13
smoothSolver:  Solving for Uy, Initial residual = 0.04065624576730312, Final residual = 0.004008711295506911, No Iterations 12
smoothSolver:  Solving for Uz, Initial residual = 0.04335735332062008, Final residual = 0.004108388311984928, No Iterations 12
[INFO] MomentumPredictor: 370.419 [ms]
[INFO] MatrixAssemblyPI: 78.42400000000001 [ms]
[INFO] MatrixAssemblyPII: 36.866 [ms]
GAMG:  Solving for p, Initial residual = 0.04374212058341345, Final residual = 0.0004366793839328136, No Iterations 8
[INFO] SolveP: 326.757 [ms]
time step continuity errors : sum local = 0.003622225421883497, global = 5.569373567866432e-05, cumulative = 0.0002928713873142184
[INFO] postSolveP: 19.134 [ms]
smoothSolver:  Solving for nuTilda, Initial residual = 0.03814175464184957, Final residual = 0.002026471524964479, No Iterations 3
[INFO] TimeStep: 1554.348 [ms]
ExecutionTime = 48.99 s  ClockTime = 50 s

Time = 23

velocityDampingConstraint velocityDamping damped 0 (0%) of cells, with max limit 300
[INFO] MatrixAssemblyU: 447.147 [ms]
smoothSolver:  Solving for Ux, Initial residual = 0.0103236648054031, Final residual = 0.000883457955635488, No Iterations 13
smoothSolver:  Solving for Uy, Initial residual = 0.04126304671607528, Final residual = 0.004015330256230582, No Iterations 12
smoothSolver:  Solving for Uz, Initial residual = 0.04296421470558058, Final residual = 0.004028712760284053, No Iterations 12
[INFO] MomentumPredictor: 370.35 [ms]
[INFO] MatrixAssemblyPI: 78.336 [ms]
[INFO] MatrixAssemblyPII: 37.195 [ms]
GAMG:  Solving for p, Initial residual = 0.04341016506118065, Final residual = 0.0003543993285913968, No Iterations 9
[INFO] SolveP: 364.938 [ms]
time step continuity errors : sum local = 0.002989409053729682, global = 6.334995197111026e-05, cumulative = 0.0003562213392853287
[INFO] postSolveP: 19.175 [ms]
smoothSolver:  Solving for nuTilda, Initial residual = 0.02315099861014498, Final residual = 0.002099653936743639, No Iterations 3
[INFO] TimeStep: 1593.028 [ms]
ExecutionTime = 50.92 s  ClockTime = 52 s

Time = 24

velocityDampingConstraint velocityDamping damped 0 (0%) of cells, with max limit 300
[INFO] MatrixAssemblyU: 448.043 [ms]
smoothSolver:  Solving for Ux, Initial residual = 0.01035158175561314, Final residual = 0.001030445535312094, No Iterations 12
smoothSolver:  Solving for Uy, Initial residual = 0.04225917052176275, Final residual = 0.004065928615635554, No Iterations 12
smoothSolver:  Solving for Uz, Initial residual = 0.04258869384008053, Final residual = 0.003955875974318843, No Iterations 12
[INFO] MomentumPredictor: 362.5 [ms]
[INFO] MatrixAssemblyPI: 77.681 [ms]
[INFO] MatrixAssemblyPII: 36.934 [ms]
GAMG:  Solving for p, Initial residual = 0.04298372326927506, Final residual = 0.000325366990940788, No Iterations 9
[INFO] SolveP: 365.197 [ms]
time step continuity errors : sum local = 0.002793106925966674, global = 6.695497324018061e-05, cumulative = 0.0004231763125255093
[INFO] postSolveP: 19.39 [ms]
smoothSolver:  Solving for nuTilda, Initial residual = 0.03463701518319884, Final residual = 0.001916448320831603, No Iterations 3
[INFO] TimeStep: 1587.386 [ms]
ExecutionTime = 52.85 s  ClockTime = 54 s

Time = 25

velocityDampingConstraint velocityDamping damped 0 (0%) of cells, with max limit 300
[INFO] MatrixAssemblyU: 446.163 [ms]
smoothSolver:  Solving for Ux, Initial residual = 0.01028766261208077, Final residual = 0.0008811995608649025, No Iterations 13
smoothSolver:  Solving for Uy, Initial residual = 0.04293048734097605, Final residual = 0.004152926264448627, No Iterations 12
smoothSolver:  Solving for Uz, Initial residual = 0.0422795463153323, Final residual = 0.003916531823230661, No Iterations 12
[INFO] MomentumPredictor: 370.541 [ms]
[INFO] MatrixAssemblyPI: 77.956 [ms]
[INFO] MatrixAssemblyPII: 36.838 [ms]
GAMG:  Solving for p, Initial residual = 0.04220294339726136, Final residual = 0.0003603302633397945, No Iterations 8
[INFO] SolveP: 325.353 [ms]
time step continuity errors : sum local = 0.00314582236795021, global = 7.256904279588815e-05, cumulative = 0.0004957453553213974
[INFO] postSolveP: 18.956 [ms]
smoothSolver:  Solving for nuTilda, Initial residual = 0.02134297744740361, Final residual = 0.001966424531836024, No Iterations 3
[INFO] TimeStep: 1552.242 [ms]
ExecutionTime = 54.74 s  ClockTime = 55 s

Time = 26

velocityDampingConstraint velocityDamping damped 0 (0%) of cells, with max limit 300
[INFO] MatrixAssemblyU: 448.009 [ms]
smoothSolver:  Solving for Ux, Initial residual = 0.01035900239248325, Final residual = 0.001033865773344125, No Iterations 12
smoothSolver:  Solving for Uy, Initial residual = 0.04376464518888879, Final residual = 0.004300361665580976, No Iterations 12
smoothSolver:  Solving for Uz, Initial residual = 0.04224448806946601, Final residual = 0.003955440848774219, No Iterations 12
[INFO] MomentumPredictor: 363.271 [ms]
[INFO] MatrixAssemblyPI: 78.71299999999999 [ms]
[INFO] MatrixAssemblyPII: 36.731 [ms]
GAMG:  Solving for p, Initial residual = 0.04184387823551151, Final residual = 0.0004036466144236194, No Iterations 8
[INFO] SolveP: 325.32 [ms]
time step continuity errors : sum local = 0.003573692594325114, global = 7.701203950574343e-05, cumulative = 0.0005727573948271408
[INFO] postSolveP: 19.191 [ms]
smoothSolver:  Solving for nuTilda, Initial residual = 0.03166190903874255, Final residual = 0.001810001089261433, No Iterations 3
[INFO] TimeStep: 1550.044 [ms]
ExecutionTime = 56.63 s  ClockTime = 57 s

Time = 27

velocityDampingConstraint velocityDamping damped 0 (0%) of cells, with max limit 300
[INFO] MatrixAssemblyU: 448.468 [ms]
smoothSolver:  Solving for Ux, Initial residual = 0.01036220051224667, Final residual = 0.001035860614019106, No Iterations 12
smoothSolver:  Solving for Uy, Initial residual = 0.04480609667269139, Final residual = 0.004468988133232861, No Iterations 12
smoothSolver:  Solving for Uz, Initial residual = 0.04253551118639367, Final residual = 0.004034141303758649, No Iterations 12
[INFO] MomentumPredictor: 361.415 [ms]
[INFO] MatrixAssemblyPI: 77.79300000000001 [ms]
[INFO] MatrixAssemblyPII: 36.745 [ms]
GAMG:  Solving for p, Initial residual = 0.0420968093922422, Final residual = 0.0003293427737676146, No Iterations 9
[INFO] SolveP: 363.773 [ms]
time step continuity errors : sum local = 0.002955186067122767, global = 7.502805811017664e-05, cumulative = 0.0006477854529373174
[INFO] postSolveP: 19.188 [ms]
smoothSolver:  Solving for nuTilda, Initial residual = 0.01975921604428819, Final residual = 0.001839974306172535, No Iterations 3
[INFO] TimeStep: 1583.719 [ms]
ExecutionTime = 58.55 s  ClockTime = 59 s

Time = 28

velocityDampingConstraint velocityDamping damped 0 (0%) of cells, with max limit 300
[INFO] MatrixAssemblyU: 448.427 [ms]
smoothSolver:  Solving for Ux, Initial residual = 0.0105149774129085, Final residual = 0.00104040920498517, No Iterations 12
smoothSolver:  Solving for Uy, Initial residual = 0.04641233301697108, Final residual = 0.003974129610541674, No Iterations 13
smoothSolver:  Solving for Uz, Initial residual = 0.04357053077462095, Final residual = 0.004149034417803756, No Iterations 12
[INFO] MomentumPredictor: 371.337 [ms]
[INFO] MatrixAssemblyPI: 77.81699999999999 [ms]
[INFO] MatrixAssemblyPII: 36.803 [ms]
GAMG:  Solving for p, Initial residual = 0.04298866052329047, Final residual = 0.0003361745496561639, No Iterations 9
[INFO] SolveP: 364.523 [ms]
time step continuity errors : sum local = 0.003058745114788821, global = 7.369116978240939e-05, cumulative = 0.0007214766227197268
[INFO] postSolveP: 19.235 [ms]
smoothSolver:  Solving for nuTilda, Initial residual = 0.02911973659026886, Final residual = 0.001703210162000829, No Iterations 3
[INFO] TimeStep: 1594.322 [ms]
ExecutionTime = 60.49 s  ClockTime = 61 s

Time = 29

velocityDampingConstraint velocityDamping damped 0 (0%) of cells, with max limit 300
[INFO] MatrixAssemblyU: 447.467 [ms]
smoothSolver:  Solving for Ux, Initial residual = 0.01054904760487464, Final residual = 0.001042612403977557, No Iterations 12
smoothSolver:  Solving for Uy, Initial residual = 0.0478871718070466, Final residual = 0.004108085976040433, No Iterations 13
smoothSolver:  Solving for Uz, Initial residual = 0.04497111441257527, Final residual = 0.004291136336131721, No Iterations 12
[INFO] MomentumPredictor: 369.735 [ms]
[INFO] MatrixAssemblyPI: 77.952 [ms]
[INFO] MatrixAssemblyPII: 37.028 [ms]
GAMG:  Solving for p, Initial residual = 0.04380142794916644, Final residual = 0.0003956044917915805, No Iterations 8
[INFO] SolveP: 325.927 [ms]
time step continuity errors : sum local = 0.003647060294351946, global = 7.751248911626172e-05, cumulative = 0.0007989891118359886
[INFO] postSolveP: 18.938 [ms]
smoothSolver:  Solving for nuTilda, Initial residual = 0.01833635472732972, Final residual = 0.001715774640325637, No Iterations 3
[INFO] TimeStep: 1555.308 [ms]
ExecutionTime = 62.39 s  ClockTime = 63 s

Time = 30

velocityDampingConstraint velocityDamping damped 0 (0%) of cells, with max limit 300
[INFO] MatrixAssemblyU: 447.084 [ms]
smoothSolver:  Solving for Ux, Initial residual = 0.01074362353135999, Final residual = 0.00104875990563058, No Iterations 12
smoothSolver:  Solving for Uy, Initial residual = 0.04983606806891375, Final residual = 0.004250161441803179, No Iterations 13
smoothSolver:  Solving for Uz, Initial residual = 0.04654350056980405, Final residual = 0.004423831007995396, No Iterations 12
[INFO] MomentumPredictor: 370.955 [ms]
[INFO] MatrixAssemblyPI: 78.096 [ms]
[INFO] MatrixAssemblyPII: 37.06 [ms]
GAMG:  Solving for p, Initial residual = 0.04482603004400659, Final residual = 0.0003451327767599533, No Iterations 9
[INFO] SolveP: 364.143 [ms]
time step continuity errors : sum local = 0.003224701419088707, global = 7.270000206977676e-05, cumulative = 0.0008716891139057653
[INFO] postSolveP: 19.073 [ms]
smoothSolver:  Solving for nuTilda, Initial residual = 0.0269047873903913, Final residual = 0.001596126661151226, No Iterations 3
[INFO] TimeStep: 1594.857 [ms]
ExecutionTime = 64.31 s  ClockTime = 65 s

Time = 31

velocityDampingConstraint velocityDamping damped 0 (0%) of cells, with max limit 300
[INFO] MatrixAssemblyU: 446.884 [ms]
smoothSolver:  Solving for Ux, Initial residual = 0.010822692979881, Final residual = 0.001056197122845025, No Iterations 12
smoothSolver:  Solving for Uy, Initial residual = 0.05238221475186272, Final residual = 0.005212688749284511, No Iterations 12
smoothSolver:  Solving for Uz, Initial residual = 0.04828857980454331, Final residual = 0.004586554434604655, No Iterations 12
[INFO] MomentumPredictor: 362.866 [ms]
[INFO] MatrixAssemblyPI: 77.825 [ms]
[INFO] MatrixAssemblyPII: 37.1 [ms]
GAMG:  Solving for p, Initial residual = 0.0460869342032181, Final residual = 0.0004341053704862743, No Iterations 8
[INFO] SolveP: 325.99 [ms]
time step continuity errors : sum local = 0.004106047790268007, global = 7.361668919660726e-05, cumulative = 0.0009453058031023726
[INFO] postSolveP: 19.087 [ms]
smoothSolver:  Solving for nuTilda, Initial residual = 0.01705281078270606, Final residual = 0.001596991018040033, No Iterations 3
[INFO] TimeStep: 1547.816 [ms]
ExecutionTime = 66.20999999999999 s  ClockTime = 67 s

Time = 32

velocityDampingConstraint velocityDamping damped 0 (0%) of cells, with max limit 300
[INFO] MatrixAssemblyU: 447.703 [ms]
smoothSolver:  Solving for Ux, Initial residual = 0.01095506010822793, Final residual = 0.001063985096051096, No Iterations 12
smoothSolver:  Solving for Uy, Initial residual = 0.05464530540090576, Final residual = 0.00544046839845962, No Iterations 12
smoothSolver:  Solving for Uz, Initial residual = 0.04981036439309696, Final residual = 0.004783908078735004, No Iterations 12
[INFO] MomentumPredictor: 361.671 [ms]
[INFO] MatrixAssemblyPI: 78.50700000000001 [ms]
[INFO] MatrixAssemblyPII: 37.179 [ms]
GAMG:  Solving for p, Initial residual = 0.04770555261059271, Final residual = 0.0004670439439097451, No Iterations 8
[INFO] SolveP: 325.258 [ms]
time step continuity errors : sum local = 0.004461575418468177, global = 6.881852577679163e-05, cumulative = 0.001014124328879164
[INFO] postSolveP: 18.935 [ms]
smoothSolver:  Solving for nuTilda, Initial residual = 0.02500007020341459, Final residual = 0.001493742364975455, No Iterations 3
[INFO] TimeStep: 1544.791 [ms]
ExecutionTime = 68.09 s  ClockTime = 69 s

Time = 33

velocityDampingConstraint velocityDamping damped 0 (0%) of cells, with max limit 300
[INFO] MatrixAssemblyU: 446.385 [ms]
smoothSolver:  Solving for Ux, Initial residual = 0.01091870977907154, Final residual = 0.001071323923318268, No Iterations 12
smoothSolver:  Solving for Uy, Initial residual = 0.05687688621756377, Final residual = 0.005665802379552498, No Iterations 12
smoothSolver:  Solving for Uz, Initial residual = 0.05194424744455612, Final residual = 0.005053882642391514, No Iterations 12
[INFO] MomentumPredictor: 364.13 [ms]
[INFO] MatrixAssemblyPI: 77.53700000000001 [ms]
[INFO] MatrixAssemblyPII: 37.251 [ms]
GAMG:  Solving for p, Initial residual = 0.04966014371354572, Final residual = 0.0004473254677284099, No Iterations 8
[INFO] SolveP: 324.032 [ms]
time step continuity errors : sum local = 0.00431184881809387, global = 6.400730389593604e-05, cumulative = 0.0010781316327751
[INFO] postSolveP: 19.089 [ms]
smoothSolver:  Solving for nuTilda, Initial residual = 0.01595084494860547, Final residual = 0.00148710940180707, No Iterations 3
[INFO] TimeStep: 1544.781 [ms]
ExecutionTime = 69.97 s  ClockTime = 71 s

Time = 34

velocityDampingConstraint velocityDamping damped 0 (0%) of cells, with max limit 300
[INFO] MatrixAssemblyU: 447.736 [ms]
smoothSolver:  Solving for Ux, Initial residual = 0.01104616083463497, Final residual = 0.001083092169767634, No Iterations 12
smoothSolver:  Solving for Uy, Initial residual = 0.05931769114648455, Final residual = 0.005920264202851341, No Iterations 12
smoothSolver:  Solving for Uz, Initial residual = 0.05443461255060064, Final residual = 0.005355136563563745, No Iterations 12
[INFO] MomentumPredictor: 361.832 [ms]
[INFO] MatrixAssemblyPI: 77.15000000000001 [ms]
[INFO] MatrixAssemblyPII: 36.976 [ms]
GAMG:  Solving for p, Initial residual = 0.05186772946911625, Final residual = 0.0004194555966992906, No Iterations 8
[INFO] SolveP: 325.823 [ms]
time step continuity errors : sum local = 0.00407924746734227, global = 5.582375882991157e-05, cumulative = 0.001133955391605012
[INFO] postSolveP: 19.271 [ms]
smoothSolver:  Solving for nuTilda, Initial residual = 0.02335752494755653, Final residual = 0.001399163087016113, No Iterations 3
[INFO] TimeStep: 1547.131 [ms]
ExecutionTime = 71.87 s  ClockTime = 73 s

Time = 35

velocityDampingConstraint velocityDamping damped 0 (0%) of cells, with max limit 300
[INFO] MatrixAssemblyU: 446.286 [ms]
smoothSolver:  Solving for Ux, Initial residual = 0.01110805198752613, Final residual = 0.001097007467346559, No Iterations 12
smoothSolver:  Solving for Uy, Initial residual = 0.061871362757955, Final residual = 0.005290679485530321, No Iterations 13
smoothSolver:  Solving for Uz, Initial residual = 0.05696714953375553, Final residual = 0.00563666474646499, No Iterations 12
[INFO] MomentumPredictor: 370.899 [ms]
[INFO] MatrixAssemblyPI: 77.462 [ms]
[INFO] MatrixAssemblyPII: 37.118 [ms]
GAMG:  Solving for p, Initial residual = 0.0537665646097918, Final residual = 0.0004004733384786912, No Iterations 8
[INFO] SolveP: 325.219 [ms]
time step continuity errors : sum local = 0.003932801625870647, global = 5.106093181249303e-05, cumulative = 0.001185016323417505
[INFO] postSolveP: 19.271 [ms]
smoothSolver:  Solving for nuTilda, Initial residual = 0.01503595255894664, Final residual = 0.001388755312225999, No Iterations 3
[INFO] TimeStep: 1553.366 [ms]
ExecutionTime = 73.75 s  ClockTime = 75 s

Time = 36

velocityDampingConstraint velocityDamping damped 0 (0%) of cells, with max limit 300
[INFO] MatrixAssemblyU: 445.905 [ms]
smoothSolver:  Solving for Ux, Initial residual = 0.01138392435950752, Final residual = 0.001119048112175914, No Iterations 12
smoothSolver:  Solving for Uy, Initial residual = 0.06387414161530607, Final residual = 0.005552408325396307, No Iterations 13
smoothSolver:  Solving for Uz, Initial residual = 0.05963830833800725, Final residual = 0.005907122171865661, No Iterations 12
[INFO] MomentumPredictor: 369.528 [ms]
[INFO] MatrixAssemblyPI: 78.268 [ms]
[INFO] MatrixAssemblyPII: 36.645 [ms]
GAMG:  Solving for p, Initial residual = 0.05512806012612276, Final residual = 0.0005124464572606143, No Iterations 7
[INFO] SolveP: 287.034 [ms]
time step continuity errors : sum local = 0.005071833040096282, global = 4.464067429593345e-05, cumulative = 0.001229656997713438
[INFO] postSolveP: 18.72 [ms]
smoothSolver:  Solving for nuTilda, Initial residual = 0.02192462089870497, Final residual = 0.001312714322186029, No Iterations 3
[INFO] TimeStep: 1512.942 [ms]
ExecutionTime = 75.61 s  ClockTime = 76 s

Time = 37

velocityDampingConstraint velocityDamping damped 0 (0%) of cells, with max limit 300
[INFO] MatrixAssemblyU: 447.546 [ms]
smoothSolver:  Solving for Ux, Initial residual = 0.01159591250541201, Final residual = 0.001144718153213678, No Iterations 12
smoothSolver:  Solving for Uy, Initial residual = 0.06597180119233188, Final residual = 0.005801595681585814, No Iterations 13
smoothSolver:  Solving for Uz, Initial residual = 0.06226742030044152, Final residual = 0.006131668945630399, No Iterations 12
[INFO] MomentumPredictor: 370.193 [ms]
[INFO] MatrixAssemblyPI: 78.756 [ms]
[INFO] MatrixAssemblyPII: 36.762 [ms]
GAMG:  Solving for p, Initial residual = 0.05709314107187805, Final residual = 0.000437838540127989, No Iterations 8
[INFO] SolveP: 325.254 [ms]
time step continuity errors : sum local = 0.004366139816595433, global = 3.552478217983829e-05, cumulative = 0.001265181779893277
[INFO] postSolveP: 19.098 [ms]
smoothSolver:  Solving for nuTilda, Initial residual = 0.01421937324736809, Final residual = 0.001300991911784147, No Iterations 3
[INFO] TimeStep: 1554.309 [ms]
ExecutionTime = 77.5 s  ClockTime = 78 s

Time = 38

velocityDampingConstraint velocityDamping damped 0 (0%) of cells, with max limit 300
[INFO] MatrixAssemblyU: 446.098 [ms]
smoothSolver:  Solving for Ux, Initial residual = 0.01191479712056637, Final residual = 0.001167749712435818, No Iterations 12
smoothSolver:  Solving for Uy, Initial residual = 0.06736900549660929, Final residual = 0.005985535406129693, No Iterations 13
smoothSolver:  Solving for Uz, Initial residual = 0.06494694517526803, Final residual = 0.00632176067116078, No Iterations 12
[INFO] MomentumPredictor: 371.312 [ms]
[INFO] MatrixAssemblyPI: 77.90000000000001 [ms]
[INFO] MatrixAssemblyPII: 36.882 [ms]
GAMG:  Solving for p, Initial residual = 0.05785100843780307, Final residual = 0.0005412342641765109, No Iterations 7
[INFO] SolveP: 287.862 [ms]
time step continuity errors : sum local = 0.005426634823844609, global = 2.434160169671354e-05, cumulative = 0.00128952338158999
[INFO] postSolveP: 18.755 [ms]
smoothSolver:  Solving for nuTilda, Initial residual = 0.02066472473582881, Final residual = 0.001236506310537643, No Iterations 3
[INFO] TimeStep: 1516.474 [ms]
ExecutionTime = 79.36 s  ClockTime = 80 s

Time = 39

velocityDampingConstraint velocityDamping damped 0 (0%) of cells, with max limit 300
[INFO] MatrixAssemblyU: 445.865 [ms]
smoothSolver:  Solving for Ux, Initial residual = 0.01200559377273257, Final residual = 0.001180069617759257, No Iterations 12
smoothSolver:  Solving for Uy, Initial residual = 0.06905762355551541, Final residual = 0.006164884817849227, No Iterations 13
smoothSolver:  Solving for Uz, Initial residual = 0.06740076120236457, Final residual = 0.006538288346423797, No Iterations 12
[INFO] MomentumPredictor: 370.958 [ms]
[INFO] MatrixAssemblyPI: 78.372 [ms]
[INFO] MatrixAssemblyPII: 36.984 [ms]
GAMG:  Solving for p, Initial residual = 0.05799258720013205, Final residual = 0.0005650457240247852, No Iterations 7
[INFO] SolveP: 286.591 [ms]
time step continuity errors : sum local = 0.005681974269494122, global = 9.985369808313112e-06, cumulative = 0.001299508751398303
[INFO] postSolveP: 19.15 [ms]
smoothSolver:  Solving for nuTilda, Initial residual = 0.01349624859039076, Final residual = 0.001226361285351264, No Iterations 3
[INFO] TimeStep: 1515.728 [ms]
ExecutionTime = 81.22 s  ClockTime = 82 s

Time = 40

velocityDampingConstraint velocityDamping damped 0 (0%) of cells, with max limit 300
[INFO] MatrixAssemblyU: 446.085 [ms]
smoothSolver:  Solving for Ux, Initial residual = 0.01213791406015145, Final residual = 0.001189834284127796, No Iterations 12
smoothSolver:  Solving for Uy, Initial residual = 0.0702855684827894, Final residual = 0.006328396199155178, No Iterations 13
smoothSolver:  Solving for Uz, Initial residual = 0.06917765943684079, Final residual = 0.006769413790446695, No Iterations 12
[INFO] MomentumPredictor: 369.866 [ms]
[INFO] MatrixAssemblyPI: 77.393 [ms]
[INFO] MatrixAssemblyPII: 36.982 [ms]
GAMG:  Solving for p, Initial residual = 0.05820805950304696, Final residual = 0.0005529315115197559, No Iterations 7
[INFO] SolveP: 289.194 [ms]
time step continuity errors : sum local = 0.005565232698496757, global = -5.640250972650892e-06, cumulative = 0.001293868500425652
[INFO] postSolveP: 19.016 [ms]
smoothSolver:  Solving for nuTilda, Initial residual = 0.01955425963913099, Final residual = 0.001171996420874917, No Iterations 3
[INFO] TimeStep: 1517.114 [ms]
ExecutionTime = 83.08 s  ClockTime = 84 s

Time = 41

velocityDampingConstraint velocityDamping damped 0 (0%) of cells, with max limit 300
[INFO] MatrixAssemblyU: 448.4 [ms]
smoothSolver:  Solving for Ux, Initial residual = 0.0120606468606422, Final residual = 0.001197336654318437, No Iterations 12
smoothSolver:  Solving for Uy, Initial residual = 0.07093665294534514, Final residual = 0.006490538141916552, No Iterations 13
smoothSolver:  Solving for Uz, Initial residual = 0.07033358995487882, Final residual = 0.00696486943299238, No Iterations 12
[INFO] MomentumPredictor: 371.497 [ms]
[INFO] MatrixAssemblyPI: 78.301 [ms]
[INFO] MatrixAssemblyPII: 36.982 [ms]
GAMG:  Solving for p, Initial residual = 0.05785826696156806, Final residual = 0.0005130288275439655, No Iterations 7
[INFO] SolveP: 287.427 [ms]
time step continuity errors : sum local = 0.005163335342217587, global = -1.161501367603323e-05, cumulative = 0.001282253486749619
[INFO] postSolveP: 18.683 [ms]
smoothSolver:  Solving for nuTilda, Initial residual = 0.01288451243768169, Final residual = 0.001163793983243582, No Iterations 3
[INFO] TimeStep: 1518.604 [ms]
ExecutionTime = 84.93000000000001 s  ClockTime = 86 s

Time = 42

velocityDampingConstraint velocityDamping damped 0 (0%) of cells, with max limit 300
[INFO] MatrixAssemblyU: 446.283 [ms]
smoothSolver:  Solving for Ux, Initial residual = 0.01210161688044265, Final residual = 0.001204677580710059, No Iterations 12
smoothSolver:  Solving for Uy, Initial residual = 0.07139691419802929, Final residual = 0.006675517250545916, No Iterations 13
smoothSolver:  Solving for Uz, Initial residual = 0.07094543981187937, Final residual = 0.006076127071902103, No Iterations 13
[INFO] MomentumPredictor: 378.498 [ms]
[INFO] MatrixAssemblyPI: 77.88 [ms]
[INFO] MatrixAssemblyPII: 37.42 [ms]
GAMG:  Solving for p, Initial residual = 0.0576069034976458, Final residual = 0.0004925068296922089, No Iterations 7
[INFO] SolveP: 286.899 [ms]
time step continuity errors : sum local = 0.00494867419373404, global = -2.42262772663972e-05, cumulative = 0.001258027209483222
[INFO] postSolveP: 18.887 [ms]
smoothSolver:  Solving for nuTilda, Initial residual = 0.01855109085289926, Final residual = 0.001116247911701085, No Iterations 3
[INFO] TimeStep: 1523.24 [ms]
ExecutionTime = 86.8 s  ClockTime = 88 s

Time = 43

velocityDampingConstraint velocityDamping damped 0 (0%) of cells, with max limit 300
[INFO] MatrixAssemblyU: 446.191 [ms]
smoothSolver:  Solving for Ux, Initial residual = 0.01201570921941236, Final residual = 0.001032621401263271, No Iterations 13
smoothSolver:  Solving for Uy, Initial residual = 0.0721255000142669, Final residual = 0.006896519637542093, No Iterations 13
smoothSolver:  Solving for Uz, Initial residual = 0.07067151942678906, Final residual = 0.006168506769631711, No Iterations 13
[INFO] MomentumPredictor: 386.468 [ms]
[INFO] MatrixAssemblyPI: 78.057 [ms]
[INFO] MatrixAssemblyPII: 37.02 [ms]
GAMG:  Solving for p, Initial residual = 0.05697733365710609, Final residual = 0.0005007795206195363, No Iterations 7
[INFO] SolveP: 287.597 [ms]
time step continuity errors : sum local = 0.005009033624761583, global = -3.126639231338078e-05, cumulative = 0.001226760817169841
[INFO] postSolveP: 18.824 [ms]
smoothSolver:  Solving for nuTilda, Initial residual = 0.01235366704490747, Final residual = 0.001107133967242205, No Iterations 3
[INFO] TimeStep: 1531.291 [ms]
ExecutionTime = 88.67 s  ClockTime = 90 s

Time = 44

velocityDampingConstraint velocityDamping damped 0 (0%) of cells, with max limit 300
[INFO] MatrixAssemblyU: 447.978 [ms]
smoothSolver:  Solving for Ux, Initial residual = 0.0120440784299477, Final residual = 0.001041502557757299, No Iterations 13
smoothSolver:  Solving for Uy, Initial residual = 0.07253397983046872, Final residual = 0.007086901585877713, No Iterations 13
smoothSolver:  Solving for Uz, Initial residual = 0.07014459449212823, Final residual = 0.006243169080851729, No Iterations 13
[INFO] MomentumPredictor: 386.121 [ms]
[INFO] MatrixAssemblyPI: 78.39400000000001 [ms]
[INFO] MatrixAssemblyPII: 37.215 [ms]
GAMG:  Solving for p, Initial residual = 0.05640805756115495, Final residual = 0.0004927466689055623, No Iterations 7
[INFO] SolveP: 287.753 [ms]
time step continuity errors : sum local = 0.004878735096400892, global = -4.305441416044865e-05, cumulative = 0.001183706403009393
[INFO] postSolveP: 18.624 [ms]
smoothSolver:  Solving for nuTilda, Initial residual = 0.01760426427966895, Final residual = 0.001063936102947269, No Iterations 3
[INFO] TimeStep: 1535.179 [ms]
ExecutionTime = 90.55 s  ClockTime = 91 s

Time = 45

velocityDampingConstraint velocityDamping damped 0 (0%) of cells, with max limit 300
[INFO] MatrixAssemblyU: 448.164 [ms]
smoothSolver:  Solving for Ux, Initial residual = 0.01190736780002417, Final residual = 0.001050321848271766, No Iterations 13
smoothSolver:  Solving for Uy, Initial residual = 0.07267281483902943, Final residual = 0.007214964237754642, No Iterations 13
smoothSolver:  Solving for Uz, Initial residual = 0.06935357936164258, Final residual = 0.006300326433564233, No Iterations 13
[INFO] MomentumPredictor: 386.3 [ms]
[INFO] MatrixAssemblyPI: 77.876 [ms]
[INFO] MatrixAssemblyPII: 36.957 [ms]
GAMG:  Solving for p, Initial residual = 0.05600107058129557, Final residual = 0.0005218629223021204, No Iterations 7
[INFO] SolveP: 287.434 [ms]
time step continuity errors : sum local = 0.00509789943092193, global = -3.280003048882094e-05, cumulative = 0.001150906372520572
[INFO] postSolveP: 18.963 [ms]
smoothSolver:  Solving for nuTilda, Initial residual = 0.0118089239841294, Final residual = 0.001053140814776764, No Iterations 3
[INFO] TimeStep: 1533.143 [ms]
ExecutionTime = 92.43000000000001 s  ClockTime = 93 s

Time = 46

velocityDampingConstraint velocityDamping damped 0 (0%) of cells, with max limit 300
[INFO] MatrixAssemblyU: 446.347 [ms]
smoothSolver:  Solving for Ux, Initial residual = 0.01177718286020243, Final residual = 0.001053074244783107, No Iterations 13
smoothSolver:  Solving for Uy, Initial residual = 0.07251453631896955, Final residual = 0.006207586113887775, No Iterations 14
smoothSolver:  Solving for Uz, Initial residual = 0.0680748725378274, Final residual = 0.006345154597985612, No Iterations 13
[INFO] MomentumPredictor: 394.537 [ms]
[INFO] MatrixAssemblyPI: 78.039 [ms]
[INFO] MatrixAssemblyPII: 36.699 [ms]
GAMG:  Solving for p, Initial residual = 0.05526753842237482, Final residual = 0.0004208051187716405, No Iterations 8
[INFO] SolveP: 325.491 [ms]
time step continuity errors : sum local = 0.004070982721814148, global = -3.714778356313984e-06, cumulative = 0.001147191594164258
[INFO] postSolveP: 19.131 [ms]
smoothSolver:  Solving for nuTilda, Initial residual = 0.01671386397484869, Final residual = 0.001014744520040584, No Iterations 3
[INFO] TimeStep: 1577.596 [ms]
ExecutionTime = 94.34 s  ClockTime = 95 s

Time = 47

velocityDampingConstraint velocityDamping damped 0 (0%) of cells, with max limit 300
[INFO] MatrixAssemblyU: 446.72 [ms]
smoothSolver:  Solving for Ux, Initial residual = 0.01152975636713085, Final residual = 0.001057363574850302, No Iterations 13
smoothSolver:  Solving for Uy, Initial residual = 0.07192197955876478, Final residual = 0.006199627864423195, No Iterations 14
smoothSolver:  Solving for Uz, Initial residual = 0.06666857797476337, Final residual = 0.006375450458957765, No Iterations 13
[INFO] MomentumPredictor: 394.138 [ms]
[INFO] MatrixAssemblyPI: 78.45999999999999 [ms]
[INFO] MatrixAssemblyPII: 37.104 [ms]
GAMG:  Solving for p, Initial residual = 0.05438308914286655, Final residual = 0.0005421877038006217, No Iterations 7
[INFO] SolveP: 287.328 [ms]
time step continuity errors : sum local = 0.005214323066232031, global = 2.035478422914579e-05, cumulative = 0.001167546378393403
[INFO] postSolveP: 18.895 [ms]
smoothSolver:  Solving for nuTilda, Initial residual = 0.01128184134252201, Final residual = 0.001005295256234724, No Iterations 3
[INFO] TimeStep: 1539.397 [ms]
ExecutionTime = 96.23 s  ClockTime = 97 s

Time = 48

velocityDampingConstraint velocityDamping damped 0 (0%) of cells, with max limit 300
[INFO] MatrixAssemblyU: 448.431 [ms]
smoothSolver:  Solving for Ux, Initial residual = 0.01149598492297768, Final residual = 0.001063762660675981, No Iterations 13
smoothSolver:  Solving for Uy, Initial residual = 0.07183885267119805, Final residual = 0.006199569429449853, No Iterations 14
smoothSolver:  Solving for Uz, Initial residual = 0.06550765264580881, Final residual = 0.0063676802882036, No Iterations 13
[INFO] MomentumPredictor: 394.815 [ms]
[INFO] MatrixAssemblyPI: 77.88 [ms]
[INFO] MatrixAssemblyPII: 36.803 [ms]
GAMG:  Solving for p, Initial residual = 0.05368178735908011, Final residual = 0.0004172615726318786, No Iterations 8
[INFO] SolveP: 326.39 [ms]
time step continuity errors : sum local = 0.003981908635343737, global = 2.632539264180742e-05, cumulative = 0.001193871771035211
[INFO] postSolveP: 19.18 [ms]
smoothSolver:  Solving for nuTilda, Initial residual = 0.01592080947244177, Final residual = 0.0009732895197420742, No Iterations 3
[INFO] TimeStep: 1580.279 [ms]
ExecutionTime = 98.14 s  ClockTime = 99 s

Time = 49

velocityDampingConstraint velocityDamping damped 0 (0%) of cells, with max limit 300
[INFO] MatrixAssemblyU: 448.097 [ms]
smoothSolver:  Solving for Ux, Initial residual = 0.01139847949033614, Final residual = 0.00106920625345603, No Iterations 13
smoothSolver:  Solving for Uy, Initial residual = 0.0710916185827989, Final residual = 0.006181838457851399, No Iterations 14
smoothSolver:  Solving for Uz, Initial residual = 0.06447972896669059, Final residual = 0.006349493830984473, No Iterations 13
[INFO] MomentumPredictor: 395.014 [ms]
[INFO] MatrixAssemblyPI: 77.654 [ms]
[INFO] MatrixAssemblyPII: 36.849 [ms]
GAMG:  Solving for p, Initial residual = 0.05285898428982934, Final residual = 0.0005256958352201258, No Iterations 7
[INFO] SolveP: 287.055 [ms]
time step continuity errors : sum local = 0.00498688069922025, global = 2.460719644658978e-05, cumulative = 0.001218478967481801
[INFO] postSolveP: 18.84 [ms]
smoothSolver:  Solving for nuTilda, Initial residual = 0.01082993281797475, Final residual = 0.0009673308873563116, No Iterations 3
[INFO] TimeStep: 1540.688 [ms]
ExecutionTime = 100.03 s  ClockTime = 101 s

Time = 50

velocityDampingConstraint velocityDamping damped 0 (0%) of cells, with max limit 300
[INFO] MatrixAssemblyU: 447.968 [ms]
smoothSolver:  Solving for Ux, Initial residual = 0.01141223971965533, Final residual = 0.001070136153350944, No Iterations 13
smoothSolver:  Solving for Uy, Initial residual = 0.07024680072825507, Final residual = 0.006121269432970156, No Iterations 14
smoothSolver:  Solving for Uz, Initial residual = 0.06360602658520219, Final residual = 0.006324127967827615, No Iterations 13
[INFO] MomentumPredictor: 395.266 [ms]
[INFO] MatrixAssemblyPI: 78.41 [ms]
[INFO] MatrixAssemblyPII: 36.973 [ms]
GAMG:  Solving for p, Initial residual = 0.05283458246996753, Final residual = 0.0004228153490624119, No Iterations 8
[INFO] SolveP: 324.953 [ms]
time step continuity errors : sum local = 0.003980050192123563, global = 7.021723258339686e-06, cumulative = 0.00122550069074014
[INFO] postSolveP: 19.244 [ms]
smoothSolver:  Solving for nuTilda, Initial residual = 0.01522933483145813, Final residual = 0.0009409247929374711, No Iterations 3
[INFO] TimeStep: 1578.462 [ms]
ExecutionTime = 101.95 s  ClockTime = 103 s

End

Finalising parallel run
