/*---------------------------------------------------------------------------*\
| =========                 |                                                 |
| \\      /  F ield         | OpenFOAM: The Open Source CFD Toolbox           |
|  \\    /   O peration     | Version:  2212                                  |
|   \\  /    A nd           | Website:  www.openfoam.com                      |
|    \\/     M anipulation  |                                                 |
\*---------------------------------------------------------------------------*/
Build  : 5614a57-20230228 OPENFOAM=2212 patch=230110 version=v2212
Arch   : "LSB;label=32;scalar=64"
Exec   : decomposePar -force
Date   : Jun 30 2023
Time   : 06:14:00
Host   : guyot
PID    : 1512130
--> FOAM Warning : 
    From Foam::fileName Foam::cwd_L()
    in file POSIX.C at line 505
    PWD is not the cwd() - reverting to physical description
I/O    : uncollated
--> FOAM Warning : 
    From Foam::fileName Foam::cwd_L()
    in file POSIX.C at line 505
    PWD is not the cwd() - reverting to physical description
Case   : /home/greole/data/code/exasim-project/micro_benchmarks/LidDrivenCavity3D/workspace/96be4c4a629620a58086d9172486ec9e/case
nProcs : 1
trapFpe: Floating point exception trapping enabled (FOAM_SIGFPE).
fileModificationChecking : Monitoring run-time modified files using timeStampMaster (fileModificationSkew 5, maxFileModificationPolls 20)
allowSystemOperations : Allowing user-supplied system call operations

// * * * * * * * * * * * * * * * * * * * * * * * * * * * * * * * * * * * * * //
Create time

--> FOAM Warning : 
    From void* Foam::dlLibraryTable::openLibrary(const Foam::fileName&, bool)
    in file db/dynamicLibrary/dlLibraryTable/dlLibraryTable.C at line 188
    Could not load "libpetscFoam.so"
libpetscFoam.so: cannot open shared object file: No such file or directory


Decomposing mesh

Create mesh

Calculating distribution of cells
Decomposition method simple [64] (region region0)

Finished decomposition in 5.35 s

Calculating original mesh data

Distributing cells to processors

Distributing faces to processors

Distributing points to processors

Constructing processor meshes
--> FOAM Warning : 
    From void* Foam::dlLibraryTable::openLibrary(const Foam::fileName&, bool)
    in file db/dynamicLibrary/dlLibraryTable/dlLibraryTable.C at line 188
    Could not load "libpetscFoam.so"
libpetscFoam.so: cannot open shared object file: No such file or directory

Processor 0
    Number of cells = 125000
    Number of points = 133926
    Number of faces shared with processor 1 = 5000
    Number of faces shared with processor 8 = 2500
    Number of faces shared with processor 32 = 1250
    Number of processor patches = 3
    Number of processor faces = 8750
    Number of boundary faces = 8750
--> FOAM Warning : 
    From void* Foam::dlLibraryTable::openLibrary(const Foam::fileName&, bool)
    in file db/dynamicLibrary/dlLibraryTable/dlLibraryTable.C at line 188
    Could not load "libpetscFoam.so"
libpetscFoam.so: cannot open shared object file: No such file or directory

Processor 1
    Number of cells = 125000
    Number of points = 133926
    Number of faces shared with processor 0 = 5000
    Number of faces shared with processor 2 = 5000
    Number of faces shared with processor 9 = 2500
    Number of faces shared with processor 33 = 1250
    Number of processor patches = 4
    Number of processor faces = 13750
    Number of boundary faces = 3750
--> FOAM Warning : 
    From void* Foam::dlLibraryTable::openLibrary(const Foam::fileName&, bool)
    in file db/dynamicLibrary/dlLibraryTable/dlLibraryTable.C at line 188
    Could not load "libpetscFoam.so"
libpetscFoam.so: cannot open shared object file: No such file or directory

Processor 2
    Number of cells = 125000
    Number of points = 133926
    Number of faces shared with processor 1 = 5000
    Number of faces shared with processor 3 = 5000
    Number of faces shared with processor 10 = 2500
    Number of faces shared with processor 34 = 1250
    Number of processor patches = 4
    Number of processor faces = 13750
    Number of boundary faces = 3750
--> FOAM Warning : 
    From void* Foam::dlLibraryTable::openLibrary(const Foam::fileName&, bool)
    in file db/dynamicLibrary/dlLibraryTable/dlLibraryTable.C at line 188
    Could not load "libpetscFoam.so"
libpetscFoam.so: cannot open shared object file: No such file or directory

Processor 3
    Number of cells = 125000
    Number of points = 133926
    Number of faces shared with processor 2 = 5000
    Number of faces shared with processor 4 = 5000
    Number of faces shared with processor 11 = 2500
    Number of faces shared with processor 35 = 1250
    Number of processor patches = 4
    Number of processor faces = 13750
    Number of boundary faces = 3750
--> FOAM Warning : 
    From void* Foam::dlLibraryTable::openLibrary(const Foam::fileName&, bool)
    in file db/dynamicLibrary/dlLibraryTable/dlLibraryTable.C at line 188
    Could not load "libpetscFoam.so"
libpetscFoam.so: cannot open shared object file: No such file or directory

Processor 4
    Number of cells = 125000
    Number of points = 133926
    Number of faces shared with processor 3 = 5000
    Number of faces shared with processor 5 = 5000
    Number of faces shared with processor 12 = 2500
    Number of faces shared with processor 36 = 1250
    Number of processor patches = 4
    Number of processor faces = 13750
    Number of boundary faces = 3750
--> FOAM Warning : 
    From void* Foam::dlLibraryTable::openLibrary(const Foam::fileName&, bool)
    in file db/dynamicLibrary/dlLibraryTable/dlLibraryTable.C at line 188
    Could not load "libpetscFoam.so"
libpetscFoam.so: cannot open shared object file: No such file or directory

Processor 5
    Number of cells = 125000
    Number of points = 133926
    Number of faces shared with processor 4 = 5000
    Number of faces shared with processor 6 = 5000
    Number of faces shared with processor 13 = 2500
    Number of faces shared with processor 37 = 1250
    Number of processor patches = 4
    Number of processor faces = 13750
    Number of boundary faces = 3750
--> FOAM Warning : 
    From void* Foam::dlLibraryTable::openLibrary(const Foam::fileName&, bool)
    in file db/dynamicLibrary/dlLibraryTable/dlLibraryTable.C at line 188
    Could not load "libpetscFoam.so"
libpetscFoam.so: cannot open shared object file: No such file or directory

Processor 6
    Number of cells = 125000
    Number of points = 133926
    Number of faces shared with processor 5 = 5000
    Number of faces shared with processor 7 = 5000
    Number of faces shared with processor 14 = 2500
    Number of faces shared with processor 38 = 1250
    Number of processor patches = 4
    Number of processor faces = 13750
    Number of boundary faces = 3750
--> FOAM Warning : 
    From void* Foam::dlLibraryTable::openLibrary(const Foam::fileName&, bool)
    in file db/dynamicLibrary/dlLibraryTable/dlLibraryTable.C at line 188
    Could not load "libpetscFoam.so"
libpetscFoam.so: cannot open shared object file: No such file or directory

Processor 7
    Number of cells = 125000
    Number of points = 133926
    Number of faces shared with processor 6 = 5000
    Number of faces shared with processor 15 = 2500
    Number of faces shared with processor 39 = 1250
    Number of processor patches = 3
    Number of processor faces = 8750
    Number of boundary faces = 8750
--> FOAM Warning : 
    From void* Foam::dlLibraryTable::openLibrary(const Foam::fileName&, bool)
    in file db/dynamicLibrary/dlLibraryTable/dlLibraryTable.C at line 188
    Could not load "libpetscFoam.so"
libpetscFoam.so: cannot open shared object file: No such file or directory

Processor 8
    Number of cells = 125000
    Number of points = 133926
    Number of faces shared with processor 0 = 2500
    Number of faces shared with processor 9 = 5000
    Number of faces shared with processor 16 = 2500
    Number of faces shared with processor 40 = 1250
    Number of processor patches = 4
    Number of processor faces = 11250
    Number of boundary faces = 6250
--> FOAM Warning : 
    From void* Foam::dlLibraryTable::openLibrary(const Foam::fileName&, bool)
    in file db/dynamicLibrary/dlLibraryTable/dlLibraryTable.C at line 188
    Could not load "libpetscFoam.so"
libpetscFoam.so: cannot open shared object file: No such file or directory

Processor 9
    Number of cells = 125000
    Number of points = 133926
    Number of faces shared with processor 1 = 2500
    Number of faces shared with processor 8 = 5000
    Number of faces shared with processor 10 = 5000
    Number of faces shared with processor 17 = 2500
    Number of faces shared with processor 41 = 1250
    Number of processor patches = 5
    Number of processor faces = 16250
    Number of boundary faces = 1250
--> FOAM Warning : 
    From void* Foam::dlLibraryTable::openLibrary(const Foam::fileName&, bool)
    in file db/dynamicLibrary/dlLibraryTable/dlLibraryTable.C at line 188
    Could not load "libpetscFoam.so"
libpetscFoam.so: cannot open shared object file: No such file or directory

Processor 10
    Number of cells = 125000
    Number of points = 133926
    Number of faces shared with processor 2 = 2500
    Number of faces shared with processor 9 = 5000
    Number of faces shared with processor 11 = 5000
    Number of faces shared with processor 18 = 2500
    Number of faces shared with processor 42 = 1250
    Number of processor patches = 5
    Number of processor faces = 16250
    Number of boundary faces = 1250
--> FOAM Warning : 
    From void* Foam::dlLibraryTable::openLibrary(const Foam::fileName&, bool)
    in file db/dynamicLibrary/dlLibraryTable/dlLibraryTable.C at line 188
    Could not load "libpetscFoam.so"
libpetscFoam.so: cannot open shared object file: No such file or directory

Processor 11
    Number of cells = 125000
    Number of points = 133926
    Number of faces shared with processor 3 = 2500
    Number of faces shared with processor 10 = 5000
    Number of faces shared with processor 12 = 5000
    Number of faces shared with processor 19 = 2500
    Number of faces shared with processor 43 = 1250
    Number of processor patches = 5
    Number of processor faces = 16250
    Number of boundary faces = 1250
--> FOAM Warning : 
    From void* Foam::dlLibraryTable::openLibrary(const Foam::fileName&, bool)
    in file db/dynamicLibrary/dlLibraryTable/dlLibraryTable.C at line 188
    Could not load "libpetscFoam.so"
libpetscFoam.so: cannot open shared object file: No such file or directory

Processor 12
    Number of cells = 125000
    Number of points = 133926
    Number of faces shared with processor 4 = 2500
    Number of faces shared with processor 11 = 5000
    Number of faces shared with processor 13 = 5000
    Number of faces shared with processor 20 = 2500
    Number of faces shared with processor 44 = 1250
    Number of processor patches = 5
    Number of processor faces = 16250
    Number of boundary faces = 1250
--> FOAM Warning : 
    From void* Foam::dlLibraryTable::openLibrary(const Foam::fileName&, bool)
    in file db/dynamicLibrary/dlLibraryTable/dlLibraryTable.C at line 188
    Could not load "libpetscFoam.so"
libpetscFoam.so: cannot open shared object file: No such file or directory

Processor 13
    Number of cells = 125000
    Number of points = 133926
    Number of faces shared with processor 5 = 2500
    Number of faces shared with processor 12 = 5000
    Number of faces shared with processor 14 = 5000
    Number of faces shared with processor 21 = 2500
    Number of faces shared with processor 45 = 1250
    Number of processor patches = 5
    Number of processor faces = 16250
    Number of boundary faces = 1250
--> FOAM Warning : 
    From void* Foam::dlLibraryTable::openLibrary(const Foam::fileName&, bool)
    in file db/dynamicLibrary/dlLibraryTable/dlLibraryTable.C at line 188
    Could not load "libpetscFoam.so"
libpetscFoam.so: cannot open shared object file: No such file or directory

Processor 14
    Number of cells = 125000
    Number of points = 133926
    Number of faces shared with processor 6 = 2500
    Number of faces shared with processor 13 = 5000
    Number of faces shared with processor 15 = 5000
    Number of faces shared with processor 22 = 2500
    Number of faces shared with processor 46 = 1250
    Number of processor patches = 5
    Number of processor faces = 16250
    Number of boundary faces = 1250
--> FOAM Warning : 
    From void* Foam::dlLibraryTable::openLibrary(const Foam::fileName&, bool)
    in file db/dynamicLibrary/dlLibraryTable/dlLibraryTable.C at line 188
    Could not load "libpetscFoam.so"
libpetscFoam.so: cannot open shared object file: No such file or directory

Processor 15
    Number of cells = 125000
    Number of points = 133926
    Number of faces shared with processor 7 = 2500
    Number of faces shared with processor 14 = 5000
    Number of faces shared with processor 23 = 2500
    Number of faces shared with processor 47 = 1250
    Number of processor patches = 4
    Number of processor faces = 11250
    Number of boundary faces = 6250
--> FOAM Warning : 
    From void* Foam::dlLibraryTable::openLibrary(const Foam::fileName&, bool)
    in file db/dynamicLibrary/dlLibraryTable/dlLibraryTable.C at line 188
    Could not load "libpetscFoam.so"
libpetscFoam.so: cannot open shared object file: No such file or directory

Processor 16
    Number of cells = 125000
    Number of points = 133926
    Number of faces shared with processor 8 = 2500
    Number of faces shared with processor 17 = 5000
    Number of faces shared with processor 24 = 2500
    Number of faces shared with processor 48 = 1250
    Number of processor patches = 4
    Number of processor faces = 11250
    Number of boundary faces = 6250
--> FOAM Warning : 
    From void* Foam::dlLibraryTable::openLibrary(const Foam::fileName&, bool)
    in file db/dynamicLibrary/dlLibraryTable/dlLibraryTable.C at line 188
    Could not load "libpetscFoam.so"
libpetscFoam.so: cannot open shared object file: No such file or directory

Processor 17
    Number of cells = 125000
    Number of points = 133926
    Number of faces shared with processor 9 = 2500
    Number of faces shared with processor 16 = 5000
    Number of faces shared with processor 18 = 5000
    Number of faces shared with processor 25 = 2500
    Number of faces shared with processor 49 = 1250
    Number of processor patches = 5
    Number of processor faces = 16250
    Number of boundary faces = 1250
--> FOAM Warning : 
    From void* Foam::dlLibraryTable::openLibrary(const Foam::fileName&, bool)
    in file db/dynamicLibrary/dlLibraryTable/dlLibraryTable.C at line 188
    Could not load "libpetscFoam.so"
libpetscFoam.so: cannot open shared object file: No such file or directory

Processor 18
    Number of cells = 125000
    Number of points = 133926
    Number of faces shared with processor 10 = 2500
    Number of faces shared with processor 17 = 5000
    Number of faces shared with processor 19 = 5000
    Number of faces shared with processor 26 = 2500
    Number of faces shared with processor 50 = 1250
    Number of processor patches = 5
    Number of processor faces = 16250
    Number of boundary faces = 1250
--> FOAM Warning : 
    From void* Foam::dlLibraryTable::openLibrary(const Foam::fileName&, bool)
    in file db/dynamicLibrary/dlLibraryTable/dlLibraryTable.C at line 188
    Could not load "libpetscFoam.so"
libpetscFoam.so: cannot open shared object file: No such file or directory

Processor 19
    Number of cells = 125000
    Number of points = 133926
    Number of faces shared with processor 11 = 2500
    Number of faces shared with processor 18 = 5000
    Number of faces shared with processor 20 = 5000
    Number of faces shared with processor 27 = 2500
    Number of faces shared with processor 51 = 1250
    Number of processor patches = 5
    Number of processor faces = 16250
    Number of boundary faces = 1250
--> FOAM Warning : 
    From void* Foam::dlLibraryTable::openLibrary(const Foam::fileName&, bool)
    in file db/dynamicLibrary/dlLibraryTable/dlLibraryTable.C at line 188
    Could not load "libpetscFoam.so"
libpetscFoam.so: cannot open shared object file: No such file or directory

Processor 20
    Number of cells = 125000
    Number of points = 133926
    Number of faces shared with processor 12 = 2500
    Number of faces shared with processor 19 = 5000
    Number of faces shared with processor 21 = 5000
    Number of faces shared with processor 28 = 2500
    Number of faces shared with processor 52 = 1250
    Number of processor patches = 5
    Number of processor faces = 16250
    Number of boundary faces = 1250
--> FOAM Warning : 
    From void* Foam::dlLibraryTable::openLibrary(const Foam::fileName&, bool)
    in file db/dynamicLibrary/dlLibraryTable/dlLibraryTable.C at line 188
    Could not load "libpetscFoam.so"
libpetscFoam.so: cannot open shared object file: No such file or directory

Processor 21
    Number of cells = 125000
    Number of points = 133926
    Number of faces shared with processor 13 = 2500
    Number of faces shared with processor 20 = 5000
    Number of faces shared with processor 22 = 5000
    Number of faces shared with processor 29 = 2500
    Number of faces shared with processor 53 = 1250
    Number of processor patches = 5
    Number of processor faces = 16250
    Number of boundary faces = 1250
--> FOAM Warning : 
    From void* Foam::dlLibraryTable::openLibrary(const Foam::fileName&, bool)
    in file db/dynamicLibrary/dlLibraryTable/dlLibraryTable.C at line 188
    Could not load "libpetscFoam.so"
libpetscFoam.so: cannot open shared object file: No such file or directory

Processor 22
    Number of cells = 125000
    Number of points = 133926
    Number of faces shared with processor 14 = 2500
    Number of faces shared with processor 21 = 5000
    Number of faces shared with processor 23 = 5000
    Number of faces shared with processor 30 = 2500
    Number of faces shared with processor 54 = 1250
    Number of processor patches = 5
    Number of processor faces = 16250
    Number of boundary faces = 1250
--> FOAM Warning : 
    From void* Foam::dlLibraryTable::openLibrary(const Foam::fileName&, bool)
    in file db/dynamicLibrary/dlLibraryTable/dlLibraryTable.C at line 188
    Could not load "libpetscFoam.so"
libpetscFoam.so: cannot open shared object file: No such file or directory

Processor 23
    Number of cells = 125000
    Number of points = 133926
    Number of faces shared with processor 15 = 2500
    Number of faces shared with processor 22 = 5000
    Number of faces shared with processor 31 = 2500
    Number of faces shared with processor 55 = 1250
    Number of processor patches = 4
    Number of processor faces = 11250
    Number of boundary faces = 6250
--> FOAM Warning : 
    From void* Foam::dlLibraryTable::openLibrary(const Foam::fileName&, bool)
    in file db/dynamicLibrary/dlLibraryTable/dlLibraryTable.C at line 188
    Could not load "libpetscFoam.so"
libpetscFoam.so: cannot open shared object file: No such file or directory

Processor 24
    Number of cells = 125000
    Number of points = 133926
    Number of faces shared with processor 16 = 2500
    Number of faces shared with processor 25 = 5000
    Number of faces shared with processor 56 = 1250
    Number of processor patches = 3
    Number of processor faces = 8750
    Number of boundary faces = 8750
--> FOAM Warning : 
    From void* Foam::dlLibraryTable::openLibrary(const Foam::fileName&, bool)
    in file db/dynamicLibrary/dlLibraryTable/dlLibraryTable.C at line 188
    Could not load "libpetscFoam.so"
libpetscFoam.so: cannot open shared object file: No such file or directory

Processor 25
    Number of cells = 125000
    Number of points = 133926
    Number of faces shared with processor 17 = 2500
    Number of faces shared with processor 24 = 5000
    Number of faces shared with processor 26 = 5000
    Number of faces shared with processor 57 = 1250
    Number of processor patches = 4
    Number of processor faces = 13750
    Number of boundary faces = 3750
--> FOAM Warning : 
    From void* Foam::dlLibraryTable::openLibrary(const Foam::fileName&, bool)
    in file db/dynamicLibrary/dlLibraryTable/dlLibraryTable.C at line 188
    Could not load "libpetscFoam.so"
libpetscFoam.so: cannot open shared object file: No such file or directory

Processor 26
    Number of cells = 125000
    Number of points = 133926
    Number of faces shared with processor 18 = 2500
    Number of faces shared with processor 25 = 5000
    Number of faces shared with processor 27 = 5000
    Number of faces shared with processor 58 = 1250
    Number of processor patches = 4
    Number of processor faces = 13750
    Number of boundary faces = 3750
--> FOAM Warning : 
    From void* Foam::dlLibraryTable::openLibrary(const Foam::fileName&, bool)
    in file db/dynamicLibrary/dlLibraryTable/dlLibraryTable.C at line 188
    Could not load "libpetscFoam.so"
libpetscFoam.so: cannot open shared object file: No such file or directory

Processor 27
    Number of cells = 125000
    Number of points = 133926
    Number of faces shared with processor 19 = 2500
    Number of faces shared with processor 26 = 5000
    Number of faces shared with processor 28 = 5000
    Number of faces shared with processor 59 = 1250
    Number of processor patches = 4
    Number of processor faces = 13750
    Number of boundary faces = 3750
--> FOAM Warning : 
    From void* Foam::dlLibraryTable::openLibrary(const Foam::fileName&, bool)
    in file db/dynamicLibrary/dlLibraryTable/dlLibraryTable.C at line 188
    Could not load "libpetscFoam.so"
libpetscFoam.so: cannot open shared object file: No such file or directory

Processor 28
    Number of cells = 125000
    Number of points = 133926
    Number of faces shared with processor 20 = 2500
    Number of faces shared with processor 27 = 5000
    Number of faces shared with processor 29 = 5000
    Number of faces shared with processor 60 = 1250
    Number of processor patches = 4
    Number of processor faces = 13750
    Number of boundary faces = 3750
--> FOAM Warning : 
    From void* Foam::dlLibraryTable::openLibrary(const Foam::fileName&, bool)
    in file db/dynamicLibrary/dlLibraryTable/dlLibraryTable.C at line 188
    Could not load "libpetscFoam.so"
libpetscFoam.so: cannot open shared object file: No such file or directory

Processor 29
    Number of cells = 125000
    Number of points = 133926
    Number of faces shared with processor 21 = 2500
    Number of faces shared with processor 28 = 5000
    Number of faces shared with processor 30 = 5000
    Number of faces shared with processor 61 = 1250
    Number of processor patches = 4
    Number of processor faces = 13750
    Number of boundary faces = 3750
--> FOAM Warning : 
    From void* Foam::dlLibraryTable::openLibrary(const Foam::fileName&, bool)
    in file db/dynamicLibrary/dlLibraryTable/dlLibraryTable.C at line 188
    Could not load "libpetscFoam.so"
libpetscFoam.so: cannot open shared object file: No such file or directory

Processor 30
    Number of cells = 125000
    Number of points = 133926
    Number of faces shared with processor 22 = 2500
    Number of faces shared with processor 29 = 5000
    Number of faces shared with processor 31 = 5000
    Number of faces shared with processor 62 = 1250
    Number of processor patches = 4
    Number of processor faces = 13750
    Number of boundary faces = 3750
--> FOAM Warning : 
    From void* Foam::dlLibraryTable::openLibrary(const Foam::fileName&, bool)
    in file db/dynamicLibrary/dlLibraryTable/dlLibraryTable.C at line 188
    Could not load "libpetscFoam.so"
libpetscFoam.so: cannot open shared object file: No such file or directory

Processor 31
    Number of cells = 125000
    Number of points = 133926
    Number of faces shared with processor 23 = 2500
    Number of faces shared with processor 30 = 5000
    Number of faces shared with processor 63 = 1250
    Number of processor patches = 3
    Number of processor faces = 8750
    Number of boundary faces = 8750
--> FOAM Warning : 
    From void* Foam::dlLibraryTable::openLibrary(const Foam::fileName&, bool)
    in file db/dynamicLibrary/dlLibraryTable/dlLibraryTable.C at line 188
    Could not load "libpetscFoam.so"
libpetscFoam.so: cannot open shared object file: No such file or directory

Processor 32
    Number of cells = 125000
    Number of points = 133926
    Number of faces shared with processor 0 = 1250
    Number of faces shared with processor 33 = 5000
    Number of faces shared with processor 40 = 2500
    Number of processor patches = 3
    Number of processor faces = 8750
    Number of boundary faces = 8750
--> FOAM Warning : 
    From void* Foam::dlLibraryTable::openLibrary(const Foam::fileName&, bool)
    in file db/dynamicLibrary/dlLibraryTable/dlLibraryTable.C at line 188
    Could not load "libpetscFoam.so"
libpetscFoam.so: cannot open shared object file: No such file or directory

Processor 33
    Number of cells = 125000
    Number of points = 133926
    Number of faces shared with processor 1 = 1250
    Number of faces shared with processor 32 = 5000
    Number of faces shared with processor 34 = 5000
    Number of faces shared with processor 41 = 2500
    Number of processor patches = 4
    Number of processor faces = 13750
    Number of boundary faces = 3750
--> FOAM Warning : 
    From void* Foam::dlLibraryTable::openLibrary(const Foam::fileName&, bool)
    in file db/dynamicLibrary/dlLibraryTable/dlLibraryTable.C at line 188
    Could not load "libpetscFoam.so"
libpetscFoam.so: cannot open shared object file: No such file or directory

Processor 34
    Number of cells = 125000
    Number of points = 133926
    Number of faces shared with processor 2 = 1250
    Number of faces shared with processor 33 = 5000
    Number of faces shared with processor 35 = 5000
    Number of faces shared with processor 42 = 2500
    Number of processor patches = 4
    Number of processor faces = 13750
    Number of boundary faces = 3750
--> FOAM Warning : 
    From void* Foam::dlLibraryTable::openLibrary(const Foam::fileName&, bool)
    in file db/dynamicLibrary/dlLibraryTable/dlLibraryTable.C at line 188
    Could not load "libpetscFoam.so"
libpetscFoam.so: cannot open shared object file: No such file or directory

Processor 35
    Number of cells = 125000
    Number of points = 133926
    Number of faces shared with processor 3 = 1250
    Number of faces shared with processor 34 = 5000
    Number of faces shared with processor 36 = 5000
    Number of faces shared with processor 43 = 2500
    Number of processor patches = 4
    Number of processor faces = 13750
    Number of boundary faces = 3750
--> FOAM Warning : 
    From void* Foam::dlLibraryTable::openLibrary(const Foam::fileName&, bool)
    in file db/dynamicLibrary/dlLibraryTable/dlLibraryTable.C at line 188
    Could not load "libpetscFoam.so"
libpetscFoam.so: cannot open shared object file: No such file or directory

Processor 36
    Number of cells = 125000
    Number of points = 133926
    Number of faces shared with processor 4 = 1250
    Number of faces shared with processor 35 = 5000
    Number of faces shared with processor 37 = 5000
    Number of faces shared with processor 44 = 2500
    Number of processor patches = 4
    Number of processor faces = 13750
    Number of boundary faces = 3750
--> FOAM Warning : 
    From void* Foam::dlLibraryTable::openLibrary(const Foam::fileName&, bool)
    in file db/dynamicLibrary/dlLibraryTable/dlLibraryTable.C at line 188
    Could not load "libpetscFoam.so"
libpetscFoam.so: cannot open shared object file: No such file or directory

Processor 37
    Number of cells = 125000
    Number of points = 133926
    Number of faces shared with processor 5 = 1250
    Number of faces shared with processor 36 = 5000
    Number of faces shared with processor 38 = 5000
    Number of faces shared with processor 45 = 2500
    Number of processor patches = 4
    Number of processor faces = 13750
    Number of boundary faces = 3750
--> FOAM Warning : 
    From void* Foam::dlLibraryTable::openLibrary(const Foam::fileName&, bool)
    in file db/dynamicLibrary/dlLibraryTable/dlLibraryTable.C at line 188
    Could not load "libpetscFoam.so"
libpetscFoam.so: cannot open shared object file: No such file or directory

Processor 38
    Number of cells = 125000
    Number of points = 133926
    Number of faces shared with processor 6 = 1250
    Number of faces shared with processor 37 = 5000
    Number of faces shared with processor 39 = 5000
    Number of faces shared with processor 46 = 2500
    Number of processor patches = 4
    Number of processor faces = 13750
    Number of boundary faces = 3750
--> FOAM Warning : 
    From void* Foam::dlLibraryTable::openLibrary(const Foam::fileName&, bool)
    in file db/dynamicLibrary/dlLibraryTable/dlLibraryTable.C at line 188
    Could not load "libpetscFoam.so"
libpetscFoam.so: cannot open shared object file: No such file or directory

Processor 39
    Number of cells = 125000
    Number of points = 133926
    Number of faces shared with processor 7 = 1250
    Number of faces shared with processor 38 = 5000
    Number of faces shared with processor 47 = 2500
    Number of processor patches = 3
    Number of processor faces = 8750
    Number of boundary faces = 8750
--> FOAM Warning : 
    From void* Foam::dlLibraryTable::openLibrary(const Foam::fileName&, bool)
    in file db/dynamicLibrary/dlLibraryTable/dlLibraryTable.C at line 188
    Could not load "libpetscFoam.so"
libpetscFoam.so: cannot open shared object file: No such file or directory

Processor 40
    Number of cells = 125000
    Number of points = 133926
    Number of faces shared with processor 8 = 1250
    Number of faces shared with processor 32 = 2500
    Number of faces shared with processor 41 = 5000
    Number of faces shared with processor 48 = 2500
    Number of processor patches = 4
    Number of processor faces = 11250
    Number of boundary faces = 6250
--> FOAM Warning : 
    From void* Foam::dlLibraryTable::openLibrary(const Foam::fileName&, bool)
    in file db/dynamicLibrary/dlLibraryTable/dlLibraryTable.C at line 188
    Could not load "libpetscFoam.so"
libpetscFoam.so: cannot open shared object file: No such file or directory

Processor 41
    Number of cells = 125000
    Number of points = 133926
    Number of faces shared with processor 9 = 1250
    Number of faces shared with processor 33 = 2500
    Number of faces shared with processor 40 = 5000
    Number of faces shared with processor 42 = 5000
    Number of faces shared with processor 49 = 2500
    Number of processor patches = 5
    Number of processor faces = 16250
    Number of boundary faces = 1250
--> FOAM Warning : 
    From void* Foam::dlLibraryTable::openLibrary(const Foam::fileName&, bool)
    in file db/dynamicLibrary/dlLibraryTable/dlLibraryTable.C at line 188
    Could not load "libpetscFoam.so"
libpetscFoam.so: cannot open shared object file: No such file or directory

Processor 42
    Number of cells = 125000
    Number of points = 133926
    Number of faces shared with processor 10 = 1250
    Number of faces shared with processor 34 = 2500
    Number of faces shared with processor 41 = 5000
    Number of faces shared with processor 43 = 5000
    Number of faces shared with processor 50 = 2500
    Number of processor patches = 5
    Number of processor faces = 16250
    Number of boundary faces = 1250
--> FOAM Warning : 
    From void* Foam::dlLibraryTable::openLibrary(const Foam::fileName&, bool)
    in file db/dynamicLibrary/dlLibraryTable/dlLibraryTable.C at line 188
    Could not load "libpetscFoam.so"
libpetscFoam.so: cannot open shared object file: No such file or directory

Processor 43
    Number of cells = 125000
    Number of points = 133926
    Number of faces shared with processor 11 = 1250
    Number of faces shared with processor 35 = 2500
    Number of faces shared with processor 42 = 5000
    Number of faces shared with processor 44 = 5000
    Number of faces shared with processor 51 = 2500
    Number of processor patches = 5
    Number of processor faces = 16250
    Number of boundary faces = 1250
--> FOAM Warning : 
    From void* Foam::dlLibraryTable::openLibrary(const Foam::fileName&, bool)
    in file db/dynamicLibrary/dlLibraryTable/dlLibraryTable.C at line 188
    Could not load "libpetscFoam.so"
libpetscFoam.so: cannot open shared object file: No such file or directory

Processor 44
    Number of cells = 125000
    Number of points = 133926
    Number of faces shared with processor 12 = 1250
    Number of faces shared with processor 36 = 2500
    Number of faces shared with processor 43 = 5000
    Number of faces shared with processor 45 = 5000
    Number of faces shared with processor 52 = 2500
    Number of processor patches = 5
    Number of processor faces = 16250
    Number of boundary faces = 1250
--> FOAM Warning : 
    From void* Foam::dlLibraryTable::openLibrary(const Foam::fileName&, bool)
    in file db/dynamicLibrary/dlLibraryTable/dlLibraryTable.C at line 188
    Could not load "libpetscFoam.so"
libpetscFoam.so: cannot open shared object file: No such file or directory

Processor 45
    Number of cells = 125000
    Number of points = 133926
    Number of faces shared with processor 13 = 1250
    Number of faces shared with processor 37 = 2500
    Number of faces shared with processor 44 = 5000
    Number of faces shared with processor 46 = 5000
    Number of faces shared with processor 53 = 2500
    Number of processor patches = 5
    Number of processor faces = 16250
    Number of boundary faces = 1250
--> FOAM Warning : 
    From void* Foam::dlLibraryTable::openLibrary(const Foam::fileName&, bool)
    in file db/dynamicLibrary/dlLibraryTable/dlLibraryTable.C at line 188
    Could not load "libpetscFoam.so"
libpetscFoam.so: cannot open shared object file: No such file or directory

Processor 46
    Number of cells = 125000
    Number of points = 133926
    Number of faces shared with processor 14 = 1250
    Number of faces shared with processor 38 = 2500
    Number of faces shared with processor 45 = 5000
    Number of faces shared with processor 47 = 5000
    Number of faces shared with processor 54 = 2500
    Number of processor patches = 5
    Number of processor faces = 16250
    Number of boundary faces = 1250
--> FOAM Warning : 
    From void* Foam::dlLibraryTable::openLibrary(const Foam::fileName&, bool)
    in file db/dynamicLibrary/dlLibraryTable/dlLibraryTable.C at line 188
    Could not load "libpetscFoam.so"
libpetscFoam.so: cannot open shared object file: No such file or directory

Processor 47
    Number of cells = 125000
    Number of points = 133926
    Number of faces shared with processor 15 = 1250
    Number of faces shared with processor 39 = 2500
    Number of faces shared with processor 46 = 5000
    Number of faces shared with processor 55 = 2500
    Number of processor patches = 4
    Number of processor faces = 11250
    Number of boundary faces = 6250
--> FOAM Warning : 
    From void* Foam::dlLibraryTable::openLibrary(const Foam::fileName&, bool)
    in file db/dynamicLibrary/dlLibraryTable/dlLibraryTable.C at line 188
    Could not load "libpetscFoam.so"
libpetscFoam.so: cannot open shared object file: No such file or directory

Processor 48
    Number of cells = 125000
    Number of points = 133926
    Number of faces shared with processor 16 = 1250
    Number of faces shared with processor 40 = 2500
    Number of faces shared with processor 49 = 5000
    Number of faces shared with processor 56 = 2500
    Number of processor patches = 4
    Number of processor faces = 11250
    Number of boundary faces = 6250
--> FOAM Warning : 
    From void* Foam::dlLibraryTable::openLibrary(const Foam::fileName&, bool)
    in file db/dynamicLibrary/dlLibraryTable/dlLibraryTable.C at line 188
    Could not load "libpetscFoam.so"
libpetscFoam.so: cannot open shared object file: No such file or directory

Processor 49
    Number of cells = 125000
    Number of points = 133926
    Number of faces shared with processor 17 = 1250
    Number of faces shared with processor 41 = 2500
    Number of faces shared with processor 48 = 5000
    Number of faces shared with processor 50 = 5000
    Number of faces shared with processor 57 = 2500
    Number of processor patches = 5
    Number of processor faces = 16250
    Number of boundary faces = 1250
--> FOAM Warning : 
    From void* Foam::dlLibraryTable::openLibrary(const Foam::fileName&, bool)
    in file db/dynamicLibrary/dlLibraryTable/dlLibraryTable.C at line 188
    Could not load "libpetscFoam.so"
libpetscFoam.so: cannot open shared object file: No such file or directory

Processor 50
    Number of cells = 125000
    Number of points = 133926
    Number of faces shared with processor 18 = 1250
    Number of faces shared with processor 42 = 2500
    Number of faces shared with processor 49 = 5000
    Number of faces shared with processor 51 = 5000
    Number of faces shared with processor 58 = 2500
    Number of processor patches = 5
    Number of processor faces = 16250
    Number of boundary faces = 1250
--> FOAM Warning : 
    From void* Foam::dlLibraryTable::openLibrary(const Foam::fileName&, bool)
    in file db/dynamicLibrary/dlLibraryTable/dlLibraryTable.C at line 188
    Could not load "libpetscFoam.so"
libpetscFoam.so: cannot open shared object file: No such file or directory

Processor 51
    Number of cells = 125000
    Number of points = 133926
    Number of faces shared with processor 19 = 1250
    Number of faces shared with processor 43 = 2500
    Number of faces shared with processor 50 = 5000
    Number of faces shared with processor 52 = 5000
    Number of faces shared with processor 59 = 2500
    Number of processor patches = 5
    Number of processor faces = 16250
    Number of boundary faces = 1250
--> FOAM Warning : 
    From void* Foam::dlLibraryTable::openLibrary(const Foam::fileName&, bool)
    in file db/dynamicLibrary/dlLibraryTable/dlLibraryTable.C at line 188
    Could not load "libpetscFoam.so"
libpetscFoam.so: cannot open shared object file: No such file or directory

Processor 52
    Number of cells = 125000
    Number of points = 133926
    Number of faces shared with processor 20 = 1250
    Number of faces shared with processor 44 = 2500
    Number of faces shared with processor 51 = 5000
    Number of faces shared with processor 53 = 5000
    Number of faces shared with processor 60 = 2500
    Number of processor patches = 5
    Number of processor faces = 16250
    Number of boundary faces = 1250
--> FOAM Warning : 
    From void* Foam::dlLibraryTable::openLibrary(const Foam::fileName&, bool)
    in file db/dynamicLibrary/dlLibraryTable/dlLibraryTable.C at line 188
    Could not load "libpetscFoam.so"
libpetscFoam.so: cannot open shared object file: No such file or directory

Processor 53
    Number of cells = 125000
    Number of points = 133926
    Number of faces shared with processor 21 = 1250
    Number of faces shared with processor 45 = 2500
    Number of faces shared with processor 52 = 5000
    Number of faces shared with processor 54 = 5000
    Number of faces shared with processor 61 = 2500
    Number of processor patches = 5
    Number of processor faces = 16250
    Number of boundary faces = 1250
--> FOAM Warning : 
    From void* Foam::dlLibraryTable::openLibrary(const Foam::fileName&, bool)
    in file db/dynamicLibrary/dlLibraryTable/dlLibraryTable.C at line 188
    Could not load "libpetscFoam.so"
libpetscFoam.so: cannot open shared object file: No such file or directory

Processor 54
    Number of cells = 125000
    Number of points = 133926
    Number of faces shared with processor 22 = 1250
    Number of faces shared with processor 46 = 2500
    Number of faces shared with processor 53 = 5000
    Number of faces shared with processor 55 = 5000
    Number of faces shared with processor 62 = 2500
    Number of processor patches = 5
    Number of processor faces = 16250
    Number of boundary faces = 1250
--> FOAM Warning : 
    From void* Foam::dlLibraryTable::openLibrary(const Foam::fileName&, bool)
    in file db/dynamicLibrary/dlLibraryTable/dlLibraryTable.C at line 188
    Could not load "libpetscFoam.so"
libpetscFoam.so: cannot open shared object file: No such file or directory

Processor 55
    Number of cells = 125000
    Number of points = 133926
    Number of faces shared with processor 23 = 1250
    Number of faces shared with processor 47 = 2500
    Number of faces shared with processor 54 = 5000
    Number of faces shared with processor 63 = 2500
    Number of processor patches = 4
    Number of processor faces = 11250
    Number of boundary faces = 6250
--> FOAM Warning : 
    From void* Foam::dlLibraryTable::openLibrary(const Foam::fileName&, bool)
    in file db/dynamicLibrary/dlLibraryTable/dlLibraryTable.C at line 188
    Could not load "libpetscFoam.so"
libpetscFoam.so: cannot open shared object file: No such file or directory

Processor 56
    Number of cells = 125000
    Number of points = 133926
    Number of faces shared with processor 24 = 1250
    Number of faces shared with processor 48 = 2500
    Number of faces shared with processor 57 = 5000
    Number of processor patches = 3
    Number of processor faces = 8750
    Number of boundary faces = 8750
--> FOAM Warning : 
    From void* Foam::dlLibraryTable::openLibrary(const Foam::fileName&, bool)
    in file db/dynamicLibrary/dlLibraryTable/dlLibraryTable.C at line 188
    Could not load "libpetscFoam.so"
libpetscFoam.so: cannot open shared object file: No such file or directory

Processor 57
    Number of cells = 125000
    Number of points = 133926
    Number of faces shared with processor 25 = 1250
    Number of faces shared with processor 49 = 2500
    Number of faces shared with processor 56 = 5000
    Number of faces shared with processor 58 = 5000
    Number of processor patches = 4
    Number of processor faces = 13750
    Number of boundary faces = 3750
--> FOAM Warning : 
    From void* Foam::dlLibraryTable::openLibrary(const Foam::fileName&, bool)
    in file db/dynamicLibrary/dlLibraryTable/dlLibraryTable.C at line 188
    Could not load "libpetscFoam.so"
libpetscFoam.so: cannot open shared object file: No such file or directory

Processor 58
    Number of cells = 125000
    Number of points = 133926
    Number of faces shared with processor 26 = 1250
    Number of faces shared with processor 50 = 2500
    Number of faces shared with processor 57 = 5000
    Number of faces shared with processor 59 = 5000
    Number of processor patches = 4
    Number of processor faces = 13750
    Number of boundary faces = 3750
--> FOAM Warning : 
    From void* Foam::dlLibraryTable::openLibrary(const Foam::fileName&, bool)
    in file db/dynamicLibrary/dlLibraryTable/dlLibraryTable.C at line 188
    Could not load "libpetscFoam.so"
libpetscFoam.so: cannot open shared object file: No such file or directory

Processor 59
    Number of cells = 125000
    Number of points = 133926
    Number of faces shared with processor 27 = 1250
    Number of faces shared with processor 51 = 2500
    Number of faces shared with processor 58 = 5000
    Number of faces shared with processor 60 = 5000
    Number of processor patches = 4
    Number of processor faces = 13750
    Number of boundary faces = 3750
--> FOAM Warning : 
    From void* Foam::dlLibraryTable::openLibrary(const Foam::fileName&, bool)
    in file db/dynamicLibrary/dlLibraryTable/dlLibraryTable.C at line 188
    Could not load "libpetscFoam.so"
libpetscFoam.so: cannot open shared object file: No such file or directory

Processor 60
    Number of cells = 125000
    Number of points = 133926
    Number of faces shared with processor 28 = 1250
    Number of faces shared with processor 52 = 2500
    Number of faces shared with processor 59 = 5000
    Number of faces shared with processor 61 = 5000
    Number of processor patches = 4
    Number of processor faces = 13750
    Number of boundary faces = 3750
--> FOAM Warning : 
    From void* Foam::dlLibraryTable::openLibrary(const Foam::fileName&, bool)
    in file db/dynamicLibrary/dlLibraryTable/dlLibraryTable.C at line 188
    Could not load "libpetscFoam.so"
libpetscFoam.so: cannot open shared object file: No such file or directory

Processor 61
    Number of cells = 125000
    Number of points = 133926
    Number of faces shared with processor 29 = 1250
    Number of faces shared with processor 53 = 2500
    Number of faces shared with processor 60 = 5000
    Number of faces shared with processor 62 = 5000
    Number of processor patches = 4
    Number of processor faces = 13750
    Number of boundary faces = 3750
--> FOAM Warning : 
    From void* Foam::dlLibraryTable::openLibrary(const Foam::fileName&, bool)
    in file db/dynamicLibrary/dlLibraryTable/dlLibraryTable.C at line 188
    Could not load "libpetscFoam.so"
libpetscFoam.so: cannot open shared object file: No such file or directory

Processor 62
    Number of cells = 125000
    Number of points = 133926
    Number of faces shared with processor 30 = 1250
    Number of faces shared with processor 54 = 2500
    Number of faces shared with processor 61 = 5000
    Number of faces shared with processor 63 = 5000
    Number of processor patches = 4
    Number of processor faces = 13750
    Number of boundary faces = 3750
--> FOAM Warning : 
    From void* Foam::dlLibraryTable::openLibrary(const Foam::fileName&, bool)
    in file db/dynamicLibrary/dlLibraryTable/dlLibraryTable.C at line 188
    Could not load "libpetscFoam.so"
libpetscFoam.so: cannot open shared object file: No such file or directory

Processor 63
    Number of cells = 125000
    Number of points = 133926
    Number of faces shared with processor 31 = 1250
    Number of faces shared with processor 55 = 2500
    Number of faces shared with processor 62 = 5000
    Number of processor patches = 3
    Number of processor faces = 8750
    Number of boundary faces = 8750

Number of processor faces = 440000
Max number of cells = 125000 (0% above average 125000)
Max number of processor patches = 5 (17.6471% above average 4.25)
Max number of faces between processors = 16250 (18.1818% above average 13750)

Time = 0

Processor 0: field transfer
--> FOAM Warning : 
    From void* Foam::dlLibraryTable::openLibrary(const Foam::fileName&, bool)
    in file db/dynamicLibrary/dlLibraryTable/dlLibraryTable.C at line 188
    Could not load "libpetscFoam.so"
libpetscFoam.so: cannot open shared object file: No such file or directory
Processor 1: field transfer
--> FOAM Warning : 
    From void* Foam::dlLibraryTable::openLibrary(const Foam::fileName&, bool)
    in file db/dynamicLibrary/dlLibraryTable/dlLibraryTable.C at line 188
    Could not load "libpetscFoam.so"
libpetscFoam.so: cannot open shared object file: No such file or directory
Processor 2: field transfer
--> FOAM Warning : 
    From void* Foam::dlLibraryTable::openLibrary(const Foam::fileName&, bool)
    in file db/dynamicLibrary/dlLibraryTable/dlLibraryTable.C at line 188
    Could not load "libpetscFoam.so"
libpetscFoam.so: cannot open shared object file: No such file or directory
Processor 3: field transfer
--> FOAM Warning : 
    From void* Foam::dlLibraryTable::openLibrary(const Foam::fileName&, bool)
    in file db/dynamicLibrary/dlLibraryTable/dlLibraryTable.C at line 188
    Could not load "libpetscFoam.so"
libpetscFoam.so: cannot open shared object file: No such file or directory
Processor 4: field transfer
--> FOAM Warning : 
    From void* Foam::dlLibraryTable::openLibrary(const Foam::fileName&, bool)
    in file db/dynamicLibrary/dlLibraryTable/dlLibraryTable.C at line 188
    Could not load "libpetscFoam.so"
libpetscFoam.so: cannot open shared object file: No such file or directory
Processor 5: field transfer
--> FOAM Warning : 
    From void* Foam::dlLibraryTable::openLibrary(const Foam::fileName&, bool)
    in file db/dynamicLibrary/dlLibraryTable/dlLibraryTable.C at line 188
    Could not load "libpetscFoam.so"
libpetscFoam.so: cannot open shared object file: No such file or directory
Processor 6: field transfer
--> FOAM Warning : 
    From void* Foam::dlLibraryTable::openLibrary(const Foam::fileName&, bool)
    in file db/dynamicLibrary/dlLibraryTable/dlLibraryTable.C at line 188
    Could not load "libpetscFoam.so"
libpetscFoam.so: cannot open shared object file: No such file or directory
Processor 7: field transfer
--> FOAM Warning : 
    From void* Foam::dlLibraryTable::openLibrary(const Foam::fileName&, bool)
    in file db/dynamicLibrary/dlLibraryTable/dlLibraryTable.C at line 188
    Could not load "libpetscFoam.so"
libpetscFoam.so: cannot open shared object file: No such file or directory
Processor 8: field transfer
--> FOAM Warning : 
    From void* Foam::dlLibraryTable::openLibrary(const Foam::fileName&, bool)
    in file db/dynamicLibrary/dlLibraryTable/dlLibraryTable.C at line 188
    Could not load "libpetscFoam.so"
libpetscFoam.so: cannot open shared object file: No such file or directory
Processor 9: field transfer
--> FOAM Warning : 
    From void* Foam::dlLibraryTable::openLibrary(const Foam::fileName&, bool)
    in file db/dynamicLibrary/dlLibraryTable/dlLibraryTable.C at line 188
    Could not load "libpetscFoam.so"
libpetscFoam.so: cannot open shared object file: No such file or directory
Processor 10: field transfer
--> FOAM Warning : 
    From void* Foam::dlLibraryTable::openLibrary(const Foam::fileName&, bool)
    in file db/dynamicLibrary/dlLibraryTable/dlLibraryTable.C at line 188
    Could not load "libpetscFoam.so"
libpetscFoam.so: cannot open shared object file: No such file or directory
Processor 11: field transfer
--> FOAM Warning : 
    From void* Foam::dlLibraryTable::openLibrary(const Foam::fileName&, bool)
    in file db/dynamicLibrary/dlLibraryTable/dlLibraryTable.C at line 188
    Could not load "libpetscFoam.so"
libpetscFoam.so: cannot open shared object file: No such file or directory
Processor 12: field transfer
--> FOAM Warning : 
    From void* Foam::dlLibraryTable::openLibrary(const Foam::fileName&, bool)
    in file db/dynamicLibrary/dlLibraryTable/dlLibraryTable.C at line 188
    Could not load "libpetscFoam.so"
libpetscFoam.so: cannot open shared object file: No such file or directory
Processor 13: field transfer
--> FOAM Warning : 
    From void* Foam::dlLibraryTable::openLibrary(const Foam::fileName&, bool)
    in file db/dynamicLibrary/dlLibraryTable/dlLibraryTable.C at line 188
    Could not load "libpetscFoam.so"
libpetscFoam.so: cannot open shared object file: No such file or directory
Processor 14: field transfer
--> FOAM Warning : 
    From void* Foam::dlLibraryTable::openLibrary(const Foam::fileName&, bool)
    in file db/dynamicLibrary/dlLibraryTable/dlLibraryTable.C at line 188
    Could not load "libpetscFoam.so"
libpetscFoam.so: cannot open shared object file: No such file or directory
Processor 15: field transfer
--> FOAM Warning : 
    From void* Foam::dlLibraryTable::openLibrary(const Foam::fileName&, bool)
    in file db/dynamicLibrary/dlLibraryTable/dlLibraryTable.C at line 188
    Could not load "libpetscFoam.so"
libpetscFoam.so: cannot open shared object file: No such file or directory
Processor 16: field transfer
--> FOAM Warning : 
    From void* Foam::dlLibraryTable::openLibrary(const Foam::fileName&, bool)
    in file db/dynamicLibrary/dlLibraryTable/dlLibraryTable.C at line 188
    Could not load "libpetscFoam.so"
libpetscFoam.so: cannot open shared object file: No such file or directory
Processor 17: field transfer
--> FOAM Warning : 
    From void* Foam::dlLibraryTable::openLibrary(const Foam::fileName&, bool)
    in file db/dynamicLibrary/dlLibraryTable/dlLibraryTable.C at line 188
    Could not load "libpetscFoam.so"
libpetscFoam.so: cannot open shared object file: No such file or directory
Processor 18: field transfer
--> FOAM Warning : 
    From void* Foam::dlLibraryTable::openLibrary(const Foam::fileName&, bool)
    in file db/dynamicLibrary/dlLibraryTable/dlLibraryTable.C at line 188
    Could not load "libpetscFoam.so"
libpetscFoam.so: cannot open shared object file: No such file or directory
Processor 19: field transfer
--> FOAM Warning : 
    From void* Foam::dlLibraryTable::openLibrary(const Foam::fileName&, bool)
    in file db/dynamicLibrary/dlLibraryTable/dlLibraryTable.C at line 188
    Could not load "libpetscFoam.so"
libpetscFoam.so: cannot open shared object file: No such file or directory
Processor 20: field transfer
--> FOAM Warning : 
    From void* Foam::dlLibraryTable::openLibrary(const Foam::fileName&, bool)
    in file db/dynamicLibrary/dlLibraryTable/dlLibraryTable.C at line 188
    Could not load "libpetscFoam.so"
libpetscFoam.so: cannot open shared object file: No such file or directory
Processor 21: field transfer
--> FOAM Warning : 
    From void* Foam::dlLibraryTable::openLibrary(const Foam::fileName&, bool)
    in file db/dynamicLibrary/dlLibraryTable/dlLibraryTable.C at line 188
    Could not load "libpetscFoam.so"
libpetscFoam.so: cannot open shared object file: No such file or directory
Processor 22: field transfer
--> FOAM Warning : 
    From void* Foam::dlLibraryTable::openLibrary(const Foam::fileName&, bool)
    in file db/dynamicLibrary/dlLibraryTable/dlLibraryTable.C at line 188
    Could not load "libpetscFoam.so"
libpetscFoam.so: cannot open shared object file: No such file or directory
Processor 23: field transfer
--> FOAM Warning : 
    From void* Foam::dlLibraryTable::openLibrary(const Foam::fileName&, bool)
    in file db/dynamicLibrary/dlLibraryTable/dlLibraryTable.C at line 188
    Could not load "libpetscFoam.so"
libpetscFoam.so: cannot open shared object file: No such file or directory
Processor 24: field transfer
--> FOAM Warning : 
    From void* Foam::dlLibraryTable::openLibrary(const Foam::fileName&, bool)
    in file db/dynamicLibrary/dlLibraryTable/dlLibraryTable.C at line 188
    Could not load "libpetscFoam.so"
libpetscFoam.so: cannot open shared object file: No such file or directory
Processor 25: field transfer
--> FOAM Warning : 
    From void* Foam::dlLibraryTable::openLibrary(const Foam::fileName&, bool)
    in file db/dynamicLibrary/dlLibraryTable/dlLibraryTable.C at line 188
    Could not load "libpetscFoam.so"
libpetscFoam.so: cannot open shared object file: No such file or directory
Processor 26: field transfer
--> FOAM Warning : 
    From void* Foam::dlLibraryTable::openLibrary(const Foam::fileName&, bool)
    in file db/dynamicLibrary/dlLibraryTable/dlLibraryTable.C at line 188
    Could not load "libpetscFoam.so"
libpetscFoam.so: cannot open shared object file: No such file or directory
Processor 27: field transfer
--> FOAM Warning : 
    From void* Foam::dlLibraryTable::openLibrary(const Foam::fileName&, bool)
    in file db/dynamicLibrary/dlLibraryTable/dlLibraryTable.C at line 188
    Could not load "libpetscFoam.so"
libpetscFoam.so: cannot open shared object file: No such file or directory
Processor 28: field transfer
--> FOAM Warning : 
    From void* Foam::dlLibraryTable::openLibrary(const Foam::fileName&, bool)
    in file db/dynamicLibrary/dlLibraryTable/dlLibraryTable.C at line 188
    Could not load "libpetscFoam.so"
libpetscFoam.so: cannot open shared object file: No such file or directory
Processor 29: field transfer
--> FOAM Warning : 
    From void* Foam::dlLibraryTable::openLibrary(const Foam::fileName&, bool)
    in file db/dynamicLibrary/dlLibraryTable/dlLibraryTable.C at line 188
    Could not load "libpetscFoam.so"
libpetscFoam.so: cannot open shared object file: No such file or directory
Processor 30: field transfer
--> FOAM Warning : 
    From void* Foam::dlLibraryTable::openLibrary(const Foam::fileName&, bool)
    in file db/dynamicLibrary/dlLibraryTable/dlLibraryTable.C at line 188
    Could not load "libpetscFoam.so"
libpetscFoam.so: cannot open shared object file: No such file or directory
Processor 31: field transfer
--> FOAM Warning : 
    From void* Foam::dlLibraryTable::openLibrary(const Foam::fileName&, bool)
    in file db/dynamicLibrary/dlLibraryTable/dlLibraryTable.C at line 188
    Could not load "libpetscFoam.so"
libpetscFoam.so: cannot open shared object file: No such file or directory
Processor 32: field transfer
--> FOAM Warning : 
    From void* Foam::dlLibraryTable::openLibrary(const Foam::fileName&, bool)
    in file db/dynamicLibrary/dlLibraryTable/dlLibraryTable.C at line 188
    Could not load "libpetscFoam.so"
libpetscFoam.so: cannot open shared object file: No such file or directory
Processor 33: field transfer
--> FOAM Warning : 
    From void* Foam::dlLibraryTable::openLibrary(const Foam::fileName&, bool)
    in file db/dynamicLibrary/dlLibraryTable/dlLibraryTable.C at line 188
    Could not load "libpetscFoam.so"
libpetscFoam.so: cannot open shared object file: No such file or directory
Processor 34: field transfer
--> FOAM Warning : 
    From void* Foam::dlLibraryTable::openLibrary(const Foam::fileName&, bool)
    in file db/dynamicLibrary/dlLibraryTable/dlLibraryTable.C at line 188
    Could not load "libpetscFoam.so"
libpetscFoam.so: cannot open shared object file: No such file or directory
Processor 35: field transfer
--> FOAM Warning : 
    From void* Foam::dlLibraryTable::openLibrary(const Foam::fileName&, bool)
    in file db/dynamicLibrary/dlLibraryTable/dlLibraryTable.C at line 188
    Could not load "libpetscFoam.so"
libpetscFoam.so: cannot open shared object file: No such file or directory
Processor 36: field transfer
--> FOAM Warning : 
    From void* Foam::dlLibraryTable::openLibrary(const Foam::fileName&, bool)
    in file db/dynamicLibrary/dlLibraryTable/dlLibraryTable.C at line 188
    Could not load "libpetscFoam.so"
libpetscFoam.so: cannot open shared object file: No such file or directory
Processor 37: field transfer
--> FOAM Warning : 
    From void* Foam::dlLibraryTable::openLibrary(const Foam::fileName&, bool)
    in file db/dynamicLibrary/dlLibraryTable/dlLibraryTable.C at line 188
    Could not load "libpetscFoam.so"
libpetscFoam.so: cannot open shared object file: No such file or directory
Processor 38: field transfer
--> FOAM Warning : 
    From void* Foam::dlLibraryTable::openLibrary(const Foam::fileName&, bool)
    in file db/dynamicLibrary/dlLibraryTable/dlLibraryTable.C at line 188
    Could not load "libpetscFoam.so"
libpetscFoam.so: cannot open shared object file: No such file or directory
Processor 39: field transfer
--> FOAM Warning : 
    From void* Foam::dlLibraryTable::openLibrary(const Foam::fileName&, bool)
    in file db/dynamicLibrary/dlLibraryTable/dlLibraryTable.C at line 188
    Could not load "libpetscFoam.so"
libpetscFoam.so: cannot open shared object file: No such file or directory
Processor 40: field transfer
--> FOAM Warning : 
    From void* Foam::dlLibraryTable::openLibrary(const Foam::fileName&, bool)
    in file db/dynamicLibrary/dlLibraryTable/dlLibraryTable.C at line 188
    Could not load "libpetscFoam.so"
libpetscFoam.so: cannot open shared object file: No such file or directory
Processor 41: field transfer
--> FOAM Warning : 
    From void* Foam::dlLibraryTable::openLibrary(const Foam::fileName&, bool)
    in file db/dynamicLibrary/dlLibraryTable/dlLibraryTable.C at line 188
    Could not load "libpetscFoam.so"
libpetscFoam.so: cannot open shared object file: No such file or directory
Processor 42: field transfer
--> FOAM Warning : 
    From void* Foam::dlLibraryTable::openLibrary(const Foam::fileName&, bool)
    in file db/dynamicLibrary/dlLibraryTable/dlLibraryTable.C at line 188
    Could not load "libpetscFoam.so"
libpetscFoam.so: cannot open shared object file: No such file or directory
Processor 43: field transfer
--> FOAM Warning : 
    From void* Foam::dlLibraryTable::openLibrary(const Foam::fileName&, bool)
    in file db/dynamicLibrary/dlLibraryTable/dlLibraryTable.C at line 188
    Could not load "libpetscFoam.so"
libpetscFoam.so: cannot open shared object file: No such file or directory
Processor 44: field transfer
--> FOAM Warning : 
    From void* Foam::dlLibraryTable::openLibrary(const Foam::fileName&, bool)
    in file db/dynamicLibrary/dlLibraryTable/dlLibraryTable.C at line 188
    Could not load "libpetscFoam.so"
libpetscFoam.so: cannot open shared object file: No such file or directory
Processor 45: field transfer
--> FOAM Warning : 
    From void* Foam::dlLibraryTable::openLibrary(const Foam::fileName&, bool)
    in file db/dynamicLibrary/dlLibraryTable/dlLibraryTable.C at line 188
    Could not load "libpetscFoam.so"
libpetscFoam.so: cannot open shared object file: No such file or directory
Processor 46: field transfer
--> FOAM Warning : 
    From void* Foam::dlLibraryTable::openLibrary(const Foam::fileName&, bool)
    in file db/dynamicLibrary/dlLibraryTable/dlLibraryTable.C at line 188
    Could not load "libpetscFoam.so"
libpetscFoam.so: cannot open shared object file: No such file or directory
Processor 47: field transfer
--> FOAM Warning : 
    From void* Foam::dlLibraryTable::openLibrary(const Foam::fileName&, bool)
    in file db/dynamicLibrary/dlLibraryTable/dlLibraryTable.C at line 188
    Could not load "libpetscFoam.so"
libpetscFoam.so: cannot open shared object file: No such file or directory
Processor 48: field transfer
--> FOAM Warning : 
    From void* Foam::dlLibraryTable::openLibrary(const Foam::fileName&, bool)
    in file db/dynamicLibrary/dlLibraryTable/dlLibraryTable.C at line 188
    Could not load "libpetscFoam.so"
libpetscFoam.so: cannot open shared object file: No such file or directory
Processor 49: field transfer
--> FOAM Warning : 
    From void* Foam::dlLibraryTable::openLibrary(const Foam::fileName&, bool)
    in file db/dynamicLibrary/dlLibraryTable/dlLibraryTable.C at line 188
    Could not load "libpetscFoam.so"
libpetscFoam.so: cannot open shared object file: No such file or directory
Processor 50: field transfer
--> FOAM Warning : 
    From void* Foam::dlLibraryTable::openLibrary(const Foam::fileName&, bool)
    in file db/dynamicLibrary/dlLibraryTable/dlLibraryTable.C at line 188
    Could not load "libpetscFoam.so"
libpetscFoam.so: cannot open shared object file: No such file or directory
Processor 51: field transfer
--> FOAM Warning : 
    From void* Foam::dlLibraryTable::openLibrary(const Foam::fileName&, bool)
    in file db/dynamicLibrary/dlLibraryTable/dlLibraryTable.C at line 188
    Could not load "libpetscFoam.so"
libpetscFoam.so: cannot open shared object file: No such file or directory
Processor 52: field transfer
--> FOAM Warning : 
    From void* Foam::dlLibraryTable::openLibrary(const Foam::fileName&, bool)
    in file db/dynamicLibrary/dlLibraryTable/dlLibraryTable.C at line 188
    Could not load "libpetscFoam.so"
libpetscFoam.so: cannot open shared object file: No such file or directory
Processor 53: field transfer
--> FOAM Warning : 
    From void* Foam::dlLibraryTable::openLibrary(const Foam::fileName&, bool)
    in file db/dynamicLibrary/dlLibraryTable/dlLibraryTable.C at line 188
    Could not load "libpetscFoam.so"
libpetscFoam.so: cannot open shared object file: No such file or directory
Processor 54: field transfer
--> FOAM Warning : 
    From void* Foam::dlLibraryTable::openLibrary(const Foam::fileName&, bool)
    in file db/dynamicLibrary/dlLibraryTable/dlLibraryTable.C at line 188
    Could not load "libpetscFoam.so"
libpetscFoam.so: cannot open shared object file: No such file or directory
Processor 55: field transfer
--> FOAM Warning : 
    From void* Foam::dlLibraryTable::openLibrary(const Foam::fileName&, bool)
    in file db/dynamicLibrary/dlLibraryTable/dlLibraryTable.C at line 188
    Could not load "libpetscFoam.so"
libpetscFoam.so: cannot open shared object file: No such file or directory
Processor 56: field transfer
--> FOAM Warning : 
    From void* Foam::dlLibraryTable::openLibrary(const Foam::fileName&, bool)
    in file db/dynamicLibrary/dlLibraryTable/dlLibraryTable.C at line 188
    Could not load "libpetscFoam.so"
libpetscFoam.so: cannot open shared object file: No such file or directory
Processor 57: field transfer
--> FOAM Warning : 
    From void* Foam::dlLibraryTable::openLibrary(const Foam::fileName&, bool)
    in file db/dynamicLibrary/dlLibraryTable/dlLibraryTable.C at line 188
    Could not load "libpetscFoam.so"
libpetscFoam.so: cannot open shared object file: No such file or directory
Processor 58: field transfer
--> FOAM Warning : 
    From void* Foam::dlLibraryTable::openLibrary(const Foam::fileName&, bool)
    in file db/dynamicLibrary/dlLibraryTable/dlLibraryTable.C at line 188
    Could not load "libpetscFoam.so"
libpetscFoam.so: cannot open shared object file: No such file or directory
Processor 59: field transfer
--> FOAM Warning : 
    From void* Foam::dlLibraryTable::openLibrary(const Foam::fileName&, bool)
    in file db/dynamicLibrary/dlLibraryTable/dlLibraryTable.C at line 188
    Could not load "libpetscFoam.so"
libpetscFoam.so: cannot open shared object file: No such file or directory
Processor 60: field transfer
--> FOAM Warning : 
    From void* Foam::dlLibraryTable::openLibrary(const Foam::fileName&, bool)
    in file db/dynamicLibrary/dlLibraryTable/dlLibraryTable.C at line 188
    Could not load "libpetscFoam.so"
libpetscFoam.so: cannot open shared object file: No such file or directory
Processor 61: field transfer
--> FOAM Warning : 
    From void* Foam::dlLibraryTable::openLibrary(const Foam::fileName&, bool)
    in file db/dynamicLibrary/dlLibraryTable/dlLibraryTable.C at line 188
    Could not load "libpetscFoam.so"
libpetscFoam.so: cannot open shared object file: No such file or directory
Processor 62: field transfer
--> FOAM Warning : 
    From void* Foam::dlLibraryTable::openLibrary(const Foam::fileName&, bool)
    in file db/dynamicLibrary/dlLibraryTable/dlLibraryTable.C at line 188
    Could not load "libpetscFoam.so"
libpetscFoam.so: cannot open shared object file: No such file or directory
Processor 63: field transfer
--> FOAM Warning : 
    From void* Foam::dlLibraryTable::openLibrary(const Foam::fileName&, bool)
    in file db/dynamicLibrary/dlLibraryTable/dlLibraryTable.C at line 188
    Could not load "libpetscFoam.so"
libpetscFoam.so: cannot open shared object file: No such file or directory

End

