/*---------------------------------------------------------------------------*\
| =========                 |                                                 |
| \\      /  F ield         | OpenFOAM: The Open Source CFD Toolbox           |
|  \\    /   O peration     | Version:  2212                                  |
|   \\  /    A nd           | Website:  www.openfoam.com                      |
|    \\/     M anipulation  |                                                 |
\*---------------------------------------------------------------------------*/
Build  : 5614a57-20230228 OPENFOAM=2212 patch=230110 version=v2212
Arch   : "LSB;label=32;scalar=64"
Exec   : icoFoam -parallel -case /home/greole/data/code/exasim-project/micro_benchmarks/LidDrivenCavity3D/workspace/96be4c4a629620a58086d9172486ec9e/case
Date   : Jul 01 2023
Time   : 19:52:57
Host   : guyot
PID    : 2266548
I/O    : uncollated
Case   : /home/greole/data/code/exasim-project/micro_benchmarks/LidDrivenCavity3D/workspace/96be4c4a629620a58086d9172486ec9e/case
nProcs : 64
Hosts  :
(
    (guyot 64)
)
Pstream initialized with:
    floatTransfer      : 0
    nProcsSimpleSum    : 0
    commsType          : nonBlocking
    polling iterations : 0
trapFpe: Floating point exception trapping enabled (FOAM_SIGFPE).
fileModificationChecking : Monitoring run-time modified files using timeStampMaster (fileModificationSkew 5, maxFileModificationPolls 20)
allowSystemOperations : Allowing user-supplied system call operations

// * * * * * * * * * * * * * * * * * * * * * * * * * * * * * * * * * * * * * //
Create time

--> FOAM Warning : 
    From void* Foam::dlLibraryTable::openLibrary(const Foam::fileName&, bool)
    in file db/dynamicLibrary/dlLibraryTable/dlLibraryTable.C at line 188
    Could not load "libpetscFoam.so"
libpetscFoam.so: cannot open shared object file: No such file or directory
Create mesh for time = 0


PISO: Operating solver in PISO mode

Reading transportProperties

Reading field p

Reading field U

Reading/calculating face flux field phi


Starting time loop

Time = 0.00025

Courant Number mean: 8.24341e-18 max: 2.08167e-14
[INFO] MatrixAssemblyU: 113.44 [ms]
DILUPBiCGStab:  Solving for Ux, Initial residual = 1, Final residual = 0.0108015, No Iterations 5
DILUPBiCGStab:  Solving for Uy:  solution singularity
DILUPBiCGStab:  Solving for Uz:  solution singularity
[INFO] MomentumPredictor: 382.206 [ms]
[INFO] MatrixAssemblyPI: 116.389 [ms]
[INFO] AdjustPhi: 8.022 [ms]
[INFO] ConstrainPressure: 0.007 [ms]
[INFO] MatrixAssemblyPII: 33.402 [ms]
nonePCG:  Solving for p, Initial residual = 1, Final residual = 9.87397e-05, No Iterations 1607
[INFO] SolveP: 11805.8 [ms]
time step continuity errors : sum local = 8.14996e-09, global = 8.88987e-22, cumulative = 8.88987e-22
[INFO] ContinuityError: 7.867 [ms]
[INFO] CorrectBoundary: 0.633 [ms]
[INFO] PISOStep: 12013.6 [ms]
[INFO] MatrixAssemblyPI: 111.812 [ms]
[INFO] AdjustPhi: 4.587 [ms]
[INFO] ConstrainPressure: 0.017 [ms]
[INFO] MatrixAssemblyPII: 33.699 [ms]
nonePCG:  Solving for p, Initial residual = 0.79299, Final residual = 9.72714e-05, No Iterations 1588
[INFO] SolveP: 11563.5 [ms]
time step continuity errors : sum local = 9.91909e-09, global = -1.7237e-21, cumulative = -8.34716e-22
[INFO] ContinuityError: 8.102 [ms]
[INFO] CorrectBoundary: 0.442 [ms]
[INFO] PISOStep: 11763.3 [ms]
[INFO] TimeStep: 24283.1 [ms]
ExecutionTime = 24.58 s  ClockTime = 25 s

Time = 0.0005

Courant Number mean: 0.0158927 max: 0.412421
[INFO] MatrixAssemblyU: 109.633 [ms]
DILUPBiCGStab:  Solving for Ux, Initial residual = 0.129567, Final residual = 0.00613995, No Iterations 5
DILUPBiCGStab:  Solving for Uy, Initial residual = 0.427346, Final residual = 0.0163983, No Iterations 5
DILUPBiCGStab:  Solving for Uz, Initial residual = 0.98482, Final residual = 0.0410191, No Iterations 5
[INFO] MomentumPredictor: 726.974 [ms]
[INFO] MatrixAssemblyPI: 113.836 [ms]
[INFO] AdjustPhi: 6.746 [ms]
[INFO] ConstrainPressure: 0.002 [ms]
[INFO] MatrixAssemblyPII: 33.879 [ms]
nonePCG:  Solving for p, Initial residual = 0.838094, Final residual = 9.69835e-05, No Iterations 1564
[INFO] SolveP: 11449.6 [ms]
time step continuity errors : sum local = 1.54385e-08, global = -2.87447e-21, cumulative = -3.70918e-21
[INFO] ContinuityError: 7.831 [ms]
[INFO] CorrectBoundary: 3.184 [ms]
[INFO] PISOStep: 11654 [ms]
[INFO] MatrixAssemblyPI: 107.627 [ms]
[INFO] AdjustPhi: 8.79 [ms]
[INFO] ConstrainPressure: 0.02 [ms]
[INFO] MatrixAssemblyPII: 33.876 [ms]
nonePCG:  Solving for p, Initial residual = 0.779059, Final residual = 9.76003e-05, No Iterations 1561
[INFO] SolveP: 11439.8 [ms]
time step continuity errors : sum local = 1.58273e-08, global = -1.36173e-21, cumulative = -5.07091e-21
[INFO] ContinuityError: 8.247 [ms]
[INFO] CorrectBoundary: 1.587 [ms]
[INFO] PISOStep: 11640.3 [ms]
[INFO] TimeStep: 24141.4 [ms]
ExecutionTime = 48.53 s  ClockTime = 49 s

Time = 0.00075

Courant Number mean: 0.0242593 max: 0.4722
[INFO] MatrixAssemblyU: 112.369 [ms]
DILUPBiCGStab:  Solving for Ux, Initial residual = 0.0548444, Final residual = 0.00212141, No Iterations 5
DILUPBiCGStab:  Solving for Uy, Initial residual = 0.182767, Final residual = 0.00857959, No Iterations 5
DILUPBiCGStab:  Solving for Uz, Initial residual = 0.806191, Final residual = 0.0286818, No Iterations 5
[INFO] MomentumPredictor: 726.143 [ms]
[INFO] MatrixAssemblyPI: 113.267 [ms]
[INFO] AdjustPhi: 6.672 [ms]
[INFO] ConstrainPressure: 0.002 [ms]
[INFO] MatrixAssemblyPII: 33.943 [ms]
nonePCG:  Solving for p, Initial residual = 0.855132, Final residual = 9.79504e-05, No Iterations 767
[INFO] SolveP: 5578.63 [ms]
time step continuity errors : sum local = 1.5019e-08, global = -5.74477e-22, cumulative = -5.64539e-21
[INFO] ContinuityError: 7.827 [ms]
[INFO] CorrectBoundary: 2.208 [ms]
[INFO] PISOStep: 5783.53 [ms]
[INFO] MatrixAssemblyPI: 110.357 [ms]
[INFO] AdjustPhi: 6.046 [ms]
[INFO] ConstrainPressure: 0.015 [ms]
[INFO] MatrixAssemblyPII: 33.955 [ms]
nonePCG:  Solving for p, Initial residual = 0.81856, Final residual = 9.74105e-05, No Iterations 763
[INFO] SolveP: 5586.96 [ms]
time step continuity errors : sum local = 1.37564e-08, global = 1.11779e-22, cumulative = -5.53361e-21
[INFO] ContinuityError: 7.717 [ms]
[INFO] CorrectBoundary: 2.808 [ms]
[INFO] PISOStep: 5786.98 [ms]
[INFO] TimeStep: 12419.8 [ms]
ExecutionTime = 60.85 s  ClockTime = 61 s

Time = 0.001

Courant Number mean: 0.0291191 max: 0.46765
[INFO] MatrixAssemblyU: 110.638 [ms]
DILUPBiCGStab:  Solving for Ux, Initial residual = 0.0348065, Final residual = 0.00137974, No Iterations 5
DILUPBiCGStab:  Solving for Uy, Initial residual = 0.129541, Final residual = 0.00547277, No Iterations 5
DILUPBiCGStab:  Solving for Uz, Initial residual = 0.613616, Final residual = 0.0186681, No Iterations 5
[INFO] MomentumPredictor: 725.529 [ms]
[INFO] MatrixAssemblyPI: 115.344 [ms]
[INFO] AdjustPhi: 4.928 [ms]
[INFO] ConstrainPressure: 0.003 [ms]
[INFO] MatrixAssemblyPII: 33.592 [ms]
nonePCG:  Solving for p, Initial residual = 0.781371, Final residual = 9.98891e-05, No Iterations 868
[INFO] SolveP: 6311.61 [ms]
time step continuity errors : sum local = 1.4334e-08, global = -1.7774e-22, cumulative = -5.71135e-21
[INFO] ContinuityError: 8.38 [ms]
[INFO] CorrectBoundary: 0.631 [ms]
[INFO] PISOStep: 6516.11 [ms]
[INFO] MatrixAssemblyPI: 109.811 [ms]
[INFO] AdjustPhi: 6.178 [ms]
[INFO] ConstrainPressure: 0.02 [ms]
[INFO] MatrixAssemblyPII: 33.138 [ms]
nonePCG:  Solving for p, Initial residual = 0.716734, Final residual = 9.99779e-05, No Iterations 824
[INFO] SolveP: 6064.04 [ms]
time step continuity errors : sum local = 1.34473e-08, global = -6.53117e-22, cumulative = -6.36447e-21
[INFO] ContinuityError: 8.293 [ms]
[INFO] CorrectBoundary: 0.831 [ms]
[INFO] PISOStep: 6264.06 [ms]
[INFO] TimeStep: 13626.9 [ms]
ExecutionTime = 74.36 s  ClockTime = 75 s

Time = 0.00125

Courant Number mean: 0.0332567 max: 0.473066
[INFO] MatrixAssemblyU: 108.847 [ms]
DILUPBiCGStab:  Solving for Ux, Initial residual = 0.0272957, Final residual = 0.00101927, No Iterations 5
DILUPBiCGStab:  Solving for Uy, Initial residual = 0.0818407, Final residual = 0.00394936, No Iterations 5
DILUPBiCGStab:  Solving for Uz, Initial residual = 0.471354, Final residual = 0.0144676, No Iterations 5
[INFO] MomentumPredictor: 728.078 [ms]
[INFO] MatrixAssemblyPI: 114.754 [ms]
[INFO] AdjustPhi: 4.886 [ms]
[INFO] ConstrainPressure: 0.002 [ms]
[INFO] MatrixAssemblyPII: 34.031 [ms]
nonePCG:  Solving for p, Initial residual = 0.784779, Final residual = 9.73397e-05, No Iterations 1569
[INFO] SolveP: 11449.6 [ms]
time step continuity errors : sum local = 1.02875e-08, global = -1.27753e-21, cumulative = -7.642e-21
[INFO] ContinuityError: 8.343 [ms]
[INFO] CorrectBoundary: 0.26 [ms]
[INFO] PISOStep: 11653.6 [ms]
[INFO] MatrixAssemblyPI: 111.33 [ms]
[INFO] AdjustPhi: 5.246 [ms]
[INFO] ConstrainPressure: 0.018 [ms]
[INFO] MatrixAssemblyPII: 33.803 [ms]
nonePCG:  Solving for p, Initial residual = 0.73193, Final residual = 9.88989e-05, No Iterations 1567
[INFO] SolveP: 11416.5 [ms]
time step continuity errors : sum local = 1.03088e-08, global = -2.00196e-21, cumulative = -9.64397e-21
[INFO] ContinuityError: 7.906 [ms]
[INFO] CorrectBoundary: 1.181 [ms]
[INFO] PISOStep: 11617.1 [ms]
[INFO] TimeStep: 24118.5 [ms]
ExecutionTime = 98.28 s  ClockTime = 99 s

Time = 0.0015

Courant Number mean: 0.0365558 max: 0.47549
[INFO] MatrixAssemblyU: 109.577 [ms]
DILUPBiCGStab:  Solving for Ux, Initial residual = 0.0205512, Final residual = 0.000724002, No Iterations 5
DILUPBiCGStab:  Solving for Uy, Initial residual = 0.0663785, Final residual = 0.00280936, No Iterations 5
DILUPBiCGStab:  Solving for Uz, Initial residual = 0.342289, Final residual = 0.00990429, No Iterations 5
[INFO] MomentumPredictor: 727.418 [ms]
[INFO] MatrixAssemblyPI: 116.055 [ms]
[INFO] AdjustPhi: 4.076 [ms]
[INFO] ConstrainPressure: 0.002 [ms]
[INFO] MatrixAssemblyPII: 34.051 [ms]
nonePCG:  Solving for p, Initial residual = 0.697154, Final residual = 9.98688e-05, No Iterations 1562
[INFO] SolveP: 11413.6 [ms]
time step continuity errors : sum local = 9.73776e-09, global = -8.24673e-22, cumulative = -1.04686e-20
[INFO] ContinuityError: 8.205 [ms]
[INFO] CorrectBoundary: 1.171 [ms]
[INFO] PISOStep: 11618 [ms]
[INFO] MatrixAssemblyPI: 110.644 [ms]
[INFO] AdjustPhi: 6.07 [ms]
[INFO] ConstrainPressure: 0.015 [ms]
[INFO] MatrixAssemblyPII: 33.689 [ms]
nonePCG:  Solving for p, Initial residual = 0.634027, Final residual = 9.99746e-05, No Iterations 1559
[INFO] SolveP: 11392.8 [ms]
time step continuity errors : sum local = 9.78257e-09, global = -2.1739e-21, cumulative = -1.26425e-20
[INFO] ContinuityError: 7.894 [ms]
[INFO] CorrectBoundary: 1.063 [ms]
[INFO] PISOStep: 11593.4 [ms]
[INFO] TimeStep: 24059.1 [ms]
ExecutionTime = 122.14 s  ClockTime = 123 s

Time = 0.00175

Courant Number mean: 0.0394707 max: 0.47746
[INFO] MatrixAssemblyU: 110.731 [ms]
DILUPBiCGStab:  Solving for Ux, Initial residual = 0.0175578, Final residual = 0.000582599, No Iterations 5
DILUPBiCGStab:  Solving for Uy, Initial residual = 0.0494831, Final residual = 0.00200029, No Iterations 5
DILUPBiCGStab:  Solving for Uz, Initial residual = 0.263389, Final residual = 0.00847939, No Iterations 5
[INFO] MomentumPredictor: 726.52 [ms]
[INFO] MatrixAssemblyPI: 115.11 [ms]
[INFO] AdjustPhi: 5.01 [ms]
[INFO] ConstrainPressure: 0.002 [ms]
[INFO] MatrixAssemblyPII: 33.842 [ms]
nonePCG:  Solving for p, Initial residual = 0.693141, Final residual = 9.95193e-05, No Iterations 1495
[INFO] SolveP: 10923.3 [ms]
time step continuity errors : sum local = 8.09796e-09, global = -4.60849e-21, cumulative = -1.7251e-20
[INFO] ContinuityError: 8.048 [ms]
[INFO] CorrectBoundary: 2.867 [ms]
[INFO] PISOStep: 11128.1 [ms]
[INFO] MatrixAssemblyPI: 109.134 [ms]
[INFO] AdjustPhi: 6.947 [ms]
[INFO] ConstrainPressure: 0.019 [ms]
[INFO] MatrixAssemblyPII: 30.357 [ms]
nonePCG:  Solving for p, Initial residual = 0.631494, Final residual = 9.99117e-05, No Iterations 1494
[INFO] SolveP: 10903.7 [ms]
time step continuity errors : sum local = 8.08168e-09, global = -1.47557e-21, cumulative = -1.87266e-20
[INFO] ContinuityError: 8.478 [ms]
[INFO] CorrectBoundary: 1.065 [ms]
[INFO] PISOStep: 11103.6 [ms]
[INFO] TimeStep: 23079.6 [ms]
ExecutionTime = 145.05 s  ClockTime = 146 s

Time = 0.002

Courant Number mean: 0.0419967 max: 0.479156
[INFO] MatrixAssemblyU: 109.025 [ms]
DILUPBiCGStab:  Solving for Ux, Initial residual = 0.0143889, Final residual = 0.000447954, No Iterations 5
DILUPBiCGStab:  Solving for Uy, Initial residual = 0.0421417, Final residual = 0.00160298, No Iterations 5
DILUPBiCGStab:  Solving for Uz, Initial residual = 0.204965, Final residual = 0.00677081, No Iterations 5
[INFO] MomentumPredictor: 726.136 [ms]
[INFO] MatrixAssemblyPI: 114.203 [ms]
[INFO] AdjustPhi: 5.118 [ms]
[INFO] ConstrainPressure: 0.003 [ms]
[INFO] MatrixAssemblyPII: 33.908 [ms]
nonePCG:  Solving for p, Initial residual = 0.605845, Final residual = 9.78939e-05, No Iterations 741
[INFO] SolveP: 5460.73 [ms]
time step continuity errors : sum local = 8.64206e-09, global = -2.56167e-21, cumulative = -2.12883e-20
[INFO] ContinuityError: 8.114 [ms]
[INFO] CorrectBoundary: 2.926 [ms]
[INFO] PISOStep: 5664.27 [ms]
[INFO] MatrixAssemblyPI: 108.432 [ms]
[INFO] AdjustPhi: 7.785 [ms]
[INFO] ConstrainPressure: 0.019 [ms]
[INFO] MatrixAssemblyPII: 33.709 [ms]
nonePCG:  Solving for p, Initial residual = 0.546477, Final residual = 9.98661e-05, No Iterations 729
[INFO] SolveP: 5315.31 [ms]
time step continuity errors : sum local = 8.09361e-09, global = -5.50664e-21, cumulative = -2.67949e-20
[INFO] ContinuityError: 7.645 [ms]
[INFO] CorrectBoundary: 1.096 [ms]
[INFO] PISOStep: 5515.66 [ms]
[INFO] TimeStep: 12026 [ms]
ExecutionTime = 156.97 s  ClockTime = 158 s

Time = 0.00225

Courant Number mean: 0.0442838 max: 0.480314
[INFO] MatrixAssemblyU: 103.963 [ms]
DILUPBiCGStab:  Solving for Ux, Initial residual = 0.0126806, Final residual = 0.0003715, No Iterations 5
DILUPBiCGStab:  Solving for Uy, Initial residual = 0.0339883, Final residual = 0.00110672, No Iterations 5
DILUPBiCGStab:  Solving for Uz, Initial residual = 0.170457, Final residual = 0.00666917, No Iterations 5
[INFO] MomentumPredictor: 732.354 [ms]
[INFO] MatrixAssemblyPI: 115.085 [ms]
[INFO] AdjustPhi: 5.164 [ms]
[INFO] ConstrainPressure: 0.019 [ms]
[INFO] MatrixAssemblyPII: 33.87 [ms]
nonePCG:  Solving for p, Initial residual = 0.593557, Final residual = 9.81632e-05, No Iterations 1502
[INFO] SolveP: 10942.6 [ms]
time step continuity errors : sum local = 6.57102e-09, global = -2.77942e-21, cumulative = -2.95743e-20
[INFO] ContinuityError: 7.548 [ms]
[INFO] CorrectBoundary: 0.409 [ms]
[INFO] PISOStep: 11146.6 [ms]
[INFO] MatrixAssemblyPI: 111.732 [ms]
[INFO] AdjustPhi: 5.098 [ms]
[INFO] ConstrainPressure: 0.018 [ms]
[INFO] MatrixAssemblyPII: 33.819 [ms]
nonePCG:  Solving for p, Initial residual = 0.531204, Final residual = 9.74573e-05, No Iterations 1500
[INFO] SolveP: 10912.5 [ms]
time step continuity errors : sum local = 6.51721e-09, global = -6.45334e-21, cumulative = -3.60277e-20
[INFO] ContinuityError: 8.063 [ms]
[INFO] CorrectBoundary: 0.202 [ms]
[INFO] PISOStep: 11113.4 [ms]
[INFO] TimeStep: 23107.1 [ms]
ExecutionTime = 179.89 s  ClockTime = 182 s

Time = 0.0025

Courant Number mean: 0.0463408 max: 0.48142
[INFO] MatrixAssemblyU: 110.143 [ms]
DILUPBiCGStab:  Solving for Ux, Initial residual = 0.0109063, Final residual = 0.000300829, No Iterations 5
DILUPBiCGStab:  Solving for Uy, Initial residual = 0.0298043, Final residual = 0.000924971, No Iterations 5
DILUPBiCGStab:  Solving for Uz, Initial residual = 0.136563, Final residual = 0.00526067, No Iterations 5
[INFO] MomentumPredictor: 725.696 [ms]
[INFO] MatrixAssemblyPI: 115.633 [ms]
[INFO] AdjustPhi: 4.488 [ms]
[INFO] ConstrainPressure: 0.003 [ms]
[INFO] MatrixAssemblyPII: 32.741 [ms]
nonePCG:  Solving for p, Initial residual = 0.519169, Final residual = 9.88186e-05, No Iterations 1499
[INFO] SolveP: 10943.2 [ms]
time step continuity errors : sum local = 6.41466e-09, global = -2.67754e-21, cumulative = -3.87052e-20
[INFO] ContinuityError: 8.272 [ms]
[INFO] CorrectBoundary: 0.964 [ms]
[INFO] PISOStep: 11147.6 [ms]
[INFO] MatrixAssemblyPI: 110.565 [ms]
[INFO] AdjustPhi: 5.817 [ms]
[INFO] ConstrainPressure: 0.014 [ms]
[INFO] MatrixAssemblyPII: 33.124 [ms]
nonePCG:  Solving for p, Initial residual = 0.464622, Final residual = 9.76111e-05, No Iterations 1497
[INFO] SolveP: 10906.1 [ms]
time step continuity errors : sum local = 6.31001e-09, global = -4.51008e-21, cumulative = -4.32153e-20
[INFO] ContinuityError: 7.98 [ms]
[INFO] CorrectBoundary: 0.312 [ms]
[INFO] PISOStep: 11106.7 [ms]
[INFO] TimeStep: 23100.7 [ms]
ExecutionTime = 202.82 s  ClockTime = 205 s

Time = 0.00275

Courant Number mean: 0.0482318 max: 0.482195
[INFO] MatrixAssemblyU: 109.401 [ms]
DILUPBiCGStab:  Solving for Ux, Initial residual = 0.00976811, Final residual = 0.000253764, No Iterations 5
DILUPBiCGStab:  Solving for Uy, Initial residual = 0.0252359, Final residual = 0.000654396, No Iterations 5
DILUPBiCGStab:  Solving for Uz, Initial residual = 0.114128, Final residual = 0.00488098, No Iterations 5
[INFO] MomentumPredictor: 727.04 [ms]
[INFO] MatrixAssemblyPI: 115.382 [ms]
[INFO] AdjustPhi: 4.559 [ms]
[INFO] ConstrainPressure: 0.002 [ms]
[INFO] MatrixAssemblyPII: 33.122 [ms]
nonePCG:  Solving for p, Initial residual = 0.495895, Final residual = 9.83099e-05, No Iterations 1495
[INFO] SolveP: 10916.2 [ms]
time step continuity errors : sum local = 5.75434e-09, global = -3.76819e-21, cumulative = -4.69835e-20
[INFO] ContinuityError: 8.151 [ms]
[INFO] CorrectBoundary: 0.37 [ms]
[INFO] PISOStep: 11120.3 [ms]
[INFO] MatrixAssemblyPI: 111.295 [ms]
[INFO] AdjustPhi: 5.069 [ms]
[INFO] ConstrainPressure: 0.019 [ms]
[INFO] MatrixAssemblyPII: 33.833 [ms]
nonePCG:  Solving for p, Initial residual = 0.439991, Final residual = 9.89421e-05, No Iterations 1493
[INFO] SolveP: 10899.9 [ms]
time step continuity errors : sum local = 5.79425e-09, global = -4.48207e-21, cumulative = -5.14656e-20
[INFO] ContinuityError: 8.174 [ms]
[INFO] CorrectBoundary: 0.468 [ms]
[INFO] PISOStep: 11100.4 [ms]
[INFO] TimeStep: 23067.8 [ms]
ExecutionTime = 225.71 s  ClockTime = 228 s

Time = 0.003

Courant Number mean: 0.0499683 max: 0.482986
[INFO] MatrixAssemblyU: 106.497 [ms]
DILUPBiCGStab:  Solving for Ux, Initial residual = 0.00867139, Final residual = 0.000213266, No Iterations 5
DILUPBiCGStab:  Solving for Uy, Initial residual = 0.0225241, Final residual = 0.000551962, No Iterations 5
DILUPBiCGStab:  Solving for Uz, Initial residual = 0.0954827, Final residual = 0.00422062, No Iterations 5
[INFO] MomentumPredictor: 729.547 [ms]
[INFO] MatrixAssemblyPI: 113.407 [ms]
[INFO] AdjustPhi: 6.667 [ms]
[INFO] ConstrainPressure: 0.003 [ms]
[INFO] MatrixAssemblyPII: 33.707 [ms]
nonePCG:  Solving for p, Initial residual = 0.439304, Final residual = 9.63883e-05, No Iterations 1492
[INFO] SolveP: 11011.2 [ms]
time step continuity errors : sum local = 5.47176e-09, global = -3.85604e-21, cumulative = -5.53216e-20
[INFO] ContinuityError: 7.821 [ms]
[INFO] CorrectBoundary: 1.917 [ms]
[INFO] PISOStep: 11215.9 [ms]
[INFO] MatrixAssemblyPI: 110.097 [ms]
[INFO] AdjustPhi: 5.802 [ms]
[INFO] ConstrainPressure: 0.009 [ms]
[INFO] MatrixAssemblyPII: 33.9 [ms]
nonePCG:  Solving for p, Initial residual = 0.39066, Final residual = 9.83543e-05, No Iterations 1490
[INFO] SolveP: 10970.2 [ms]
time step continuity errors : sum local = 5.55916e-09, global = -5.13859e-21, cumulative = -6.04602e-20
[INFO] ContinuityError: 7.799 [ms]
[INFO] CorrectBoundary: 0.67 [ms]
[INFO] PISOStep: 11170.3 [ms]
[INFO] TimeStep: 23232.9 [ms]
ExecutionTime = 248.76 s  ClockTime = 251 s

Time = 0.00325

Courant Number mean: 0.0515816 max: 0.483553
[INFO] MatrixAssemblyU: 109.843 [ms]
DILUPBiCGStab:  Solving for Ux, Initial residual = 0.00786996, Final residual = 0.000182511, No Iterations 5
DILUPBiCGStab:  Solving for Uy, Initial residual = 0.0197102, Final residual = 0.000428687, No Iterations 5
DILUPBiCGStab:  Solving for Uz, Initial residual = 0.0817565, Final residual = 0.00387479, No Iterations 5
[INFO] MomentumPredictor: 730.058 [ms]
[INFO] MatrixAssemblyPI: 115.054 [ms]
[INFO] AdjustPhi: 4.783 [ms]
[INFO] ConstrainPressure: 0.004 [ms]
[INFO] MatrixAssemblyPII: 33.939 [ms]
nonePCG:  Solving for p, Initial residual = 0.409682, Final residual = 9.74958e-05, No Iterations 1488
[INFO] SolveP: 10877.1 [ms]
time step continuity errors : sum local = 5.16293e-09, global = -4.39859e-21, cumulative = -6.48588e-20
[INFO] ContinuityError: 7.969 [ms]
[INFO] CorrectBoundary: 1.595 [ms]
[INFO] PISOStep: 11081.1 [ms]
[INFO] MatrixAssemblyPI: 107.336 [ms]
[INFO] AdjustPhi: 8.368 [ms]
[INFO] ConstrainPressure: 0.02 [ms]
[INFO] MatrixAssemblyPII: 33.599 [ms]
nonePCG:  Solving for p, Initial residual = 0.36153, Final residual = 9.89373e-05, No Iterations 1486
[INFO] SolveP: 10927.3 [ms]
time step continuity errors : sum local = 5.24341e-09, global = -4.06897e-21, cumulative = -6.89278e-20
[INFO] ContinuityError: 7.8 [ms]
[INFO] CorrectBoundary: 0.454 [ms]
[INFO] PISOStep: 11127.1 [ms]
[INFO] TimeStep: 23058.6 [ms]
ExecutionTime = 271.63 s  ClockTime = 274 s

Time = 0.0035

Courant Number mean: 0.0530804 max: 0.48415
[INFO] MatrixAssemblyU: 109.13 [ms]
DILUPBiCGStab:  Solving for Ux, Initial residual = 0.00713157, Final residual = 0.000157106, No Iterations 5
DILUPBiCGStab:  Solving for Uy, Initial residual = 0.0178634, Final residual = 0.000364719, No Iterations 5
DILUPBiCGStab:  Solving for Uz, Initial residual = 0.0704764, Final residual = 0.00341742, No Iterations 5
[INFO] MomentumPredictor: 726.606 [ms]
[INFO] MatrixAssemblyPI: 112.728 [ms]
[INFO] AdjustPhi: 7.285 [ms]
[INFO] ConstrainPressure: 0.003 [ms]
[INFO] MatrixAssemblyPII: 33.842 [ms]
nonePCG:  Solving for p, Initial residual = 0.367176, Final residual = 9.91008e-05, No Iterations 731
[INFO] SolveP: 5369.78 [ms]
time step continuity errors : sum local = 5.66869e-09, global = -2.98183e-21, cumulative = -7.19096e-20
[INFO] ContinuityError: 7.969 [ms]
[INFO] CorrectBoundary: 2.605 [ms]
[INFO] PISOStep: 5574.41 [ms]
[INFO] MatrixAssemblyPI: 110.981 [ms]
[INFO] AdjustPhi: 5.379 [ms]
[INFO] ConstrainPressure: 0.014 [ms]
[INFO] MatrixAssemblyPII: 33.466 [ms]
nonePCG:  Solving for p, Initial residual = 0.325434, Final residual = 9.92913e-05, No Iterations 687
[INFO] SolveP: 5039.89 [ms]
time step continuity errors : sum local = 5.26501e-09, global = -1.62818e-21, cumulative = -7.35378e-20
[INFO] ContinuityError: 8.1 [ms]
[INFO] CorrectBoundary: 0.21 [ms]
[INFO] PISOStep: 5240.2 [ms]
[INFO] TimeStep: 11661.4 [ms]
ExecutionTime = 283.2 s  ClockTime = 286 s

Time = 0.00375

Courant Number mean: 0.0544858 max: 0.484592
[INFO] MatrixAssemblyU: 107.513 [ms]
DILUPBiCGStab:  Solving for Ux, Initial residual = 0.00654854, Final residual = 0.000136352, No Iterations 5
DILUPBiCGStab:  Solving for Uy, Initial residual = 0.0159822, Final residual = 0.000313366, No Iterations 5
DILUPBiCGStab:  Solving for Uz, Initial residual = 0.0624574, Final residual = 0.00320939, No Iterations 5
[INFO] MomentumPredictor: 729.244 [ms]
[INFO] MatrixAssemblyPI: 114.624 [ms]
[INFO] AdjustPhi: 5.143 [ms]
[INFO] ConstrainPressure: 0.003 [ms]
[INFO] MatrixAssemblyPII: 33.89 [ms]
nonePCG:  Solving for p, Initial residual = 0.335302, Final residual = 9.67186e-05, No Iterations 1485
[INFO] SolveP: 10840.9 [ms]
time step continuity errors : sum local = 4.73452e-09, global = -5.54365e-21, cumulative = -7.90814e-20
[INFO] ContinuityError: 7.67 [ms]
[INFO] CorrectBoundary: 0.557 [ms]
[INFO] PISOStep: 11045 [ms]
[INFO] MatrixAssemblyPI: 110.67 [ms]
[INFO] AdjustPhi: 5.77 [ms]
[INFO] ConstrainPressure: 0.017 [ms]
[INFO] MatrixAssemblyPII: 33.75 [ms]
nonePCG:  Solving for p, Initial residual = 0.295137, Final residual = 9.85807e-05, No Iterations 1483
[INFO] SolveP: 10943.4 [ms]
time step continuity errors : sum local = 4.82948e-09, global = -5.17745e-21, cumulative = -8.42589e-20
[INFO] ContinuityError: 8.168 [ms]
[INFO] CorrectBoundary: 0.298 [ms]
[INFO] PISOStep: 11144 [ms]
[INFO] TimeStep: 23036.6 [ms]
ExecutionTime = 306.05 s  ClockTime = 309 s

Time = 0.004

Courant Number mean: 0.0558025 max: 0.485057
[INFO] MatrixAssemblyU: 108.798 [ms]
DILUPBiCGStab:  Solving for Ux, Initial residual = 0.00601569, Final residual = 0.000119698, No Iterations 5
DILUPBiCGStab:  Solving for Uy, Initial residual = 0.0146872, Final residual = 0.000270128, No Iterations 5
DILUPBiCGStab:  Solving for Uz, Initial residual = 0.054453, Final residual = 0.00274539, No Iterations 5
[INFO] MomentumPredictor: 730.806 [ms]
[INFO] MatrixAssemblyPI: 114.734 [ms]
[INFO] AdjustPhi: 5.243 [ms]
[INFO] ConstrainPressure: 0.003 [ms]
[INFO] MatrixAssemblyPII: 33.183 [ms]
nonePCG:  Solving for p, Initial residual = 0.303657, Final residual = 9.56855e-05, No Iterations 1482
[INFO] SolveP: 10818.6 [ms]
time step continuity errors : sum local = 4.50615e-09, global = -5.51286e-21, cumulative = -8.97717e-20
[INFO] ContinuityError: 7.967 [ms]
[INFO] CorrectBoundary: 0.548 [ms]
[INFO] PISOStep: 11022.6 [ms]
[INFO] MatrixAssemblyPI: 109.587 [ms]
[INFO] AdjustPhi: 7.099 [ms]
[INFO] ConstrainPressure: 0.008 [ms]
[INFO] MatrixAssemblyPII: 32.731 [ms]
nonePCG:  Solving for p, Initial residual = 0.268446, Final residual = 9.38841e-05, No Iterations 1481
[INFO] SolveP: 10833.9 [ms]
time step continuity errors : sum local = 4.40779e-09, global = -6.83116e-21, cumulative = -9.66029e-20
[INFO] ContinuityError: 7.966 [ms]
[INFO] CorrectBoundary: 0.743 [ms]
[INFO] PISOStep: 11034.5 [ms]
[INFO] TimeStep: 22907.4 [ms]
ExecutionTime = 328.78 s  ClockTime = 332 s

Time = 0.00425

Courant Number mean: 0.0570442 max: 0.485415
[INFO] MatrixAssemblyU: 108.575 [ms]
DILUPBiCGStab:  Solving for Ux, Initial residual = 0.00556096, Final residual = 0.000105251, No Iterations 5
DILUPBiCGStab:  Solving for Uy, Initial residual = 0.0133623, Final residual = 0.00024396, No Iterations 5
DILUPBiCGStab:  Solving for Uz, Initial residual = 0.0475943, Final residual = 0.00245576, No Iterations 5
[INFO] MomentumPredictor: 733.548 [ms]
[INFO] MatrixAssemblyPI: 113.11 [ms]
[INFO] AdjustPhi: 6.652 [ms]
[INFO] ConstrainPressure: 0.002 [ms]
[INFO] MatrixAssemblyPII: 33.637 [ms]
nonePCG:  Solving for p, Initial residual = 0.273111, Final residual = 9.6632e-05, No Iterations 1479
[INFO] SolveP: 10792.1 [ms]
time step continuity errors : sum local = 4.43794e-09, global = -7.97541e-21, cumulative = -1.04578e-19
[INFO] ContinuityError: 7.857 [ms]
[INFO] CorrectBoundary: 1.213 [ms]
[INFO] PISOStep: 10996.2 [ms]
[INFO] MatrixAssemblyPI: 110.195 [ms]
[INFO] AdjustPhi: 5.869 [ms]
[INFO] ConstrainPressure: 0.016 [ms]
[INFO] MatrixAssemblyPII: 33.911 [ms]
nonePCG:  Solving for p, Initial residual = 0.240157, Final residual = 9.94083e-05, No Iterations 1476
[INFO] SolveP: 10775.7 [ms]
time step continuity errors : sum local = 4.56745e-09, global = -3.63751e-21, cumulative = -1.08216e-19
[INFO] ContinuityError: 7.816 [ms]
[INFO] CorrectBoundary: 1.21 [ms]
[INFO] PISOStep: 10975.7 [ms]
[INFO] TimeStep: 22824.7 [ms]
ExecutionTime = 351.43 s  ClockTime = 354 s

Time = 0.0045

Courant Number mean: 0.0582158 max: 0.485789
[INFO] MatrixAssemblyU: 107.116 [ms]
DILUPBiCGStab:  Solving for Ux, Initial residual = 0.00516729, Final residual = 9.41691e-05, No Iterations 5
DILUPBiCGStab:  Solving for Uy, Initial residual = 0.0123796, Final residual = 0.000213851, No Iterations 5
DILUPBiCGStab:  Solving for Uz, Initial residual = 0.0425485, Final residual = 0.00217558, No Iterations 5
[INFO] MomentumPredictor: 729.945 [ms]
[INFO] MatrixAssemblyPI: 112.732 [ms]
[INFO] AdjustPhi: 7.033 [ms]
[INFO] ConstrainPressure: 0.003 [ms]
[INFO] MatrixAssemblyPII: 33.836 [ms]
nonePCG:  Solving for p, Initial residual = 0.248609, Final residual = 9.82655e-05, No Iterations 1475
[INFO] SolveP: 10858.8 [ms]
time step continuity errors : sum local = 4.34134e-09, global = -8.94025e-22, cumulative = -1.0911e-19
[INFO] ContinuityError: 8.063 [ms]
[INFO] CorrectBoundary: 1.499 [ms]
[INFO] PISOStep: 11063 [ms]
[INFO] MatrixAssemblyPI: 110.623 [ms]
[INFO] AdjustPhi: 5.852 [ms]
[INFO] ConstrainPressure: 0.021 [ms]
[INFO] MatrixAssemblyPII: 33.376 [ms]
nonePCG:  Solving for p, Initial residual = 0.219405, Final residual = 9.51701e-05, No Iterations 1474
[INFO] SolveP: 10777.5 [ms]
time step continuity errors : sum local = 4.19477e-09, global = -3.79998e-21, cumulative = -1.1291e-19
[INFO] ContinuityError: 7.957 [ms]
[INFO] CorrectBoundary: 0.432 [ms]
[INFO] PISOStep: 10978.1 [ms]
[INFO] TimeStep: 22888.8 [ms]
ExecutionTime = 374.13 s  ClockTime = 377 s

Time = 0.00475

Courant Number mean: 0.0593262 max: 0.486088
[INFO] MatrixAssemblyU: 108.462 [ms]
DILUPBiCGStab:  Solving for Ux, Initial residual = 0.00481166, Final residual = 8.39087e-05, No Iterations 5
DILUPBiCGStab:  Solving for Uy, Initial residual = 0.0114034, Final residual = 0.000198192, No Iterations 5
DILUPBiCGStab:  Solving for Uz, Initial residual = 0.0377416, Final residual = 0.0019072, No Iterations 5
[INFO] MomentumPredictor: 728.593 [ms]
[INFO] MatrixAssemblyPI: 115.48 [ms]
[INFO] AdjustPhi: 4.571 [ms]
[INFO] ConstrainPressure: 0.003 [ms]
[INFO] MatrixAssemblyPII: 33.253 [ms]
nonePCG:  Solving for p, Initial residual = 0.221439, Final residual = 9.99077e-05, No Iterations 671
[INFO] SolveP: 4923.96 [ms]
time step continuity errors : sum local = 4.87912e-09, global = -6.62055e-21, cumulative = -1.1953e-19
[INFO] ContinuityError: 7.813 [ms]
[INFO] CorrectBoundary: 1.199 [ms]
[INFO] PISOStep: 5128.35 [ms]
[INFO] MatrixAssemblyPI: 108.64 [ms]
[INFO] AdjustPhi: 7.506 [ms]
[INFO] ConstrainPressure: 0.024 [ms]
[INFO] MatrixAssemblyPII: 33.621 [ms]
nonePCG:  Solving for p, Initial residual = 0.194638, Final residual = 9.96703e-05, No Iterations 650
[INFO] SolveP: 4758.48 [ms]
time step continuity errors : sum local = 4.52426e-09, global = -3.61013e-21, cumulative = -1.2314e-19
[INFO] ContinuityError: 8 [ms]
[INFO] CorrectBoundary: 0.933 [ms]
[INFO] PISOStep: 4958.58 [ms]
[INFO] TimeStep: 10934.7 [ms]
ExecutionTime = 384.98 s  ClockTime = 388 s

Time = 0.005

Courant Number mean: 0.0603791 max: 0.486394
[INFO] MatrixAssemblyU: 110.003 [ms]
DILUPBiCGStab:  Solving for Ux, Initial residual = 0.00450319, Final residual = 7.6186e-05, No Iterations 5
DILUPBiCGStab:  Solving for Uy, Initial residual = 0.0106771, Final residual = 0.000176901, No Iterations 5
DILUPBiCGStab:  Solving for Uz, Initial residual = 0.0346307, Final residual = 0.00170045, No Iterations 5
[INFO] MomentumPredictor: 725.994 [ms]
[INFO] MatrixAssemblyPI: 113.742 [ms]
[INFO] AdjustPhi: 5.921 [ms]
[INFO] ConstrainPressure: 0.003 [ms]
[INFO] MatrixAssemblyPII: 33.841 [ms]
nonePCG:  Solving for p, Initial residual = 0.201992, Final residual = 9.84498e-05, No Iterations 1470
[INFO] SolveP: 10754.1 [ms]
time step continuity errors : sum local = 4.14166e-09, global = -5.57286e-21, cumulative = -1.28713e-19
[INFO] ContinuityError: 8.096 [ms]
[INFO] CorrectBoundary: 1.163 [ms]
[INFO] PISOStep: 10958.5 [ms]
[INFO] MatrixAssemblyPI: 110.454 [ms]
[INFO] AdjustPhi: 5.493 [ms]
[INFO] ConstrainPressure: 0.006 [ms]
[INFO] MatrixAssemblyPII: 33.86 [ms]
nonePCG:  Solving for p, Initial residual = 0.178082, Final residual = 9.65614e-05, No Iterations 1469
[INFO] SolveP: 10669.1 [ms]
time step continuity errors : sum local = 4.05582e-09, global = -1.07117e-20, cumulative = -1.39425e-19
[INFO] ContinuityError: 7.838 [ms]
[INFO] CorrectBoundary: 0.349 [ms]
[INFO] PISOStep: 10868.5 [ms]
[INFO] TimeStep: 22674 [ms]
ExecutionTime = 407.48 s  ClockTime = 411 s

End

Finalising parallel run
