/*---------------------------------------------------------------------------*\
| =========                 |                                                 |
| \\      /  F ield         | OpenFOAM: The Open Source CFD Toolbox           |
|  \\    /   O peration     | Version:  2306                                  |
|   \\  /    A nd           | Website:  www.openfoam.com                      |
|    \\/     M anipulation  |                                                 |
\*---------------------------------------------------------------------------*/
Build  : a6e826bd55-20230630 OPENFOAM=2306 version=v2306
Arch   : "LSB;label=32;scalar=64"
Exec   : simpleFoam -parallel -case /home/greole/data/code/exasim_project/micro_benchmarks/WindsorBody/workspace/6f8be880a6c73b3aeeb694dadaf1861f/case
Date   : Aug 27 2023
Time   : 11:11:37
Host   : nla-gpu2.ianm.kit.edu
PID    : 3063140
I/O    : uncollated
Case   : /home/greole/data/code/exasim_project/micro_benchmarks/WindsorBody/workspace/6f8be880a6c73b3aeeb694dadaf1861f/case
nProcs : 32
Hosts  :
(
    (nla-gpu2.ianm.kit.edu 32)
)
Pstream initialized with:
    floatTransfer      : false
    nProcsSimpleSum    : 0
    nonBlockingExchange: 0 (tuning: 0)
    exchange algorithm : -1
    commsType          : nonBlocking
    polling iterations : 0
trapFpe: Floating point exception trapping enabled (FOAM_SIGFPE).
fileModificationChecking : Monitoring run-time modified files using timeStampMaster (fileModificationSkew 5, maxFileModificationPolls 20)
allowSystemOperations : Allowing user-supplied system call operations

// * * * * * * * * * * * * * * * * * * * * * * * * * * * * * * * * * * * * * //
Create time

--> FOAM Warning : 
    From void* Foam::dlLibraryTable::openLibrary(const Foam::fileName&, bool)
    in file db/dynamicLibrary/dlLibraryTable/dlLibraryTable.C at line 188
    Could not load "libpetscFoam.so"
libpetscFoam.so: cannot open shared object file: No such file or directory
Create mesh for time = 0


SIMPLE: convergence criteria
    field p	 tolerance 1e-08
    field U	 tolerance 1e-08
    field k	 tolerance 1e-08
    field omega	 tolerance 1e-08
    field nuTilda	 tolerance 1e-08

Reading field p

Reading field U

Reading/calculating face flux field phi

Selecting incompressible transport model Newtonian
Selecting turbulence model type RAS
Selecting RAS turbulence model SpalartAllmaras
Selecting patchDistMethod meshWave
ft2 term: inactive
RAS
{
    RASModel        SpalartAllmaras;
    turbulence      on;
    printCoeffs     on;
    sigmaNut        0.66666;
    kappa           0.41;
    Cb1             0.1355;
    Cb2             0.622;
    Cw2             0.3;
    Cw3             2;
    Cv1             7.1;
    Cs              0.3;
    ck              0.07000000000000001;
    ft2             false;
    Ct3             1.2;
    Ct4             0.5;
}

No MRF models present

Creating finite volume options from "system/fvOptions"

Selecting finite volume options type velocityDampingConstraint
    Source: velocityDamping
    - selecting all cells
    - selected 25228544 cell(s) with volume 111.3033220642923

Starting time loop

--> FOAM Warning : 
    From bool Foam::functionObjectList::read()
    in file db/functionObjects/functionObjectList/functionObjectList.C at line 1035
    Reading "system/controlDict" at line 2 to 41
    Entry 'lref' is not a dictionary
--> FOAM Warning : 
    From bool Foam::functionObjectList::read()
    in file db/functionObjects/functionObjectList/functionObjectList.C at line 1035
    Reading "system/controlDict" at line 2 to 41
    Entry 'Aref' is not a dictionary
--> FOAM Warning : 
    From bool Foam::functionObjectList::read()
    in file db/functionObjects/functionObjectList/functionObjectList.C at line 1035
    Reading "system/controlDict" at line 2 to 41
    Entry 'yawAngle' is not a dictionary
--> FOAM Warning : 
    From bool Foam::functionObjectList::read()
    in file db/functionObjects/functionObjectList/functionObjectList.C at line 1035
    Reading "system/controlDict" at line 2 to 41
    Entry 'lDomain' is not a dictionary
--> FOAM Warning : 
    From bool Foam::functionObjectList::read()
    in file db/functionObjects/functionObjectList/functionObjectList.C at line 1035
    Reading "system/controlDict" at line 2 to 41
    Entry 'bDomain' is not a dictionary
--> FOAM Warning : 
    From bool Foam::functionObjectList::read()
    in file db/functionObjects/functionObjectList/functionObjectList.C at line 1035
    Reading "system/controlDict" at line 2 to 41
    Entry 'hDomain' is not a dictionary
--> FOAM Warning : 
    From bool Foam::functionObjectList::read()
    in file db/functionObjects/functionObjectList/functionObjectList.C at line 1035
    Reading "system/controlDict" at line 2 to 41
    Entry 'xCenter' is not a dictionary
--> FOAM Warning : 
    From bool Foam::functionObjectList::read()
    in file db/functionObjects/functionObjectList/functionObjectList.C at line 1035
    Reading "system/controlDict" at line 2 to 41
    Entry 'yCenter' is not a dictionary
--> FOAM Warning : 
    From bool Foam::functionObjectList::read()
    in file db/functionObjects/functionObjectList/functionObjectList.C at line 1035
    Reading "system/controlDict" at line 2 to 41
    Entry 'zCenter' is not a dictionary
--> FOAM Warning : 
    From bool Foam::functionObjectList::read()
    in file db/functionObjects/functionObjectList/functionObjectList.C at line 1035
    Reading "system/controlDict" at line 2 to 41
    Entry 'inletPatch' is not a dictionary
--> FOAM Warning : 
    From bool Foam::functionObjectList::read()
    in file db/functionObjects/functionObjectList/functionObjectList.C at line 1035
    Reading "system/controlDict" at line 2 to 41
    Entry 'outletPatch' is not a dictionary
--> FOAM Warning : 
    From bool Foam::functionObjectList::read()
    in file db/functionObjects/functionObjectList/functionObjectList.C at line 1035
    Reading "system/controlDict" at line 2 to 41
    Entry 'wallPatches' is not a dictionary
--> FOAM Warning : 
    From bool Foam::functionObjectList::read()
    in file db/functionObjects/functionObjectList/functionObjectList.C at line 1035
    Reading "system/controlDict" at line 2 to 41
    Entry 'forcesWallPatches' is not a dictionary
--> FOAM Warning : 
    From bool Foam::functionObjectList::read()
    in file db/functionObjects/functionObjectList/functionObjectList.C at line 1035
    Reading "system/controlDict" at line 2 to 41
    Entry 'symmPatches' is not a dictionary
--> FOAM Warning : 
    From bool Foam::functionObjectList::read()
    in file db/functionObjects/functionObjectList/functionObjectList.C at line 1035
    Reading "system/controlDict" at line 2 to 41
    Entry 'Uinf' is not a dictionary
--> FOAM Warning : 
    From bool Foam::functionObjectList::read()
    in file db/functionObjects/functionObjectList/functionObjectList.C at line 1035
    Reading "system/controlDict" at line 2 to 41
    Entry 'UinfMag' is not a dictionary
--> FOAM Warning : 
    From bool Foam::functionObjectList::read()
    in file db/functionObjects/functionObjectList/functionObjectList.C at line 1035
    Reading "system/controlDict" at line 2 to 41
    Entry 'nu' is not a dictionary
--> FOAM Warning : 
    From bool Foam::functionObjectList::read()
    in file db/functionObjects/functionObjectList/functionObjectList.C at line 1035
    Reading "system/controlDict" at line 2 to 41
    Entry 'pref' is not a dictionary
--> FOAM Warning : 
    From bool Foam::functionObjectList::read()
    in file db/functionObjects/functionObjectList/functionObjectList.C at line 1035
    Reading "system/controlDict" at line 2 to 41
    Entry 'viscRatio' is not a dictionary
--> FOAM Warning : 
    From bool Foam::functionObjectList::read()
    in file db/functionObjects/functionObjectList/functionObjectList.C at line 1035
    Reading "system/controlDict" at line 2 to 41
    Entry 'Tu' is not a dictionary
--> FOAM Warning : 
    From bool Foam::functionObjectList::read()
    in file db/functionObjects/functionObjectList/functionObjectList.C at line 1035
    Reading "system/controlDict" at line 2 to 41
    Entry 'LESturbModel' is not a dictionary
--> FOAM Warning : 
    From bool Foam::functionObjectList::read()
    in file db/functionObjects/functionObjectList/functionObjectList.C at line 1035
    Reading "system/controlDict" at line 2 to 41
    Entry 'RASturbModel' is not a dictionary
--> FOAM Warning : 
    From bool Foam::functionObjectList::read()
    in file db/functionObjects/functionObjectList/functionObjectList.C at line 1035
    Reading "system/controlDict" at line 2 to 41
    Entry 'deltaTurb' is not a dictionary
--> FOAM Warning : 
    From bool Foam::functionObjectList::read()
    in file db/functionObjects/functionObjectList/functionObjectList.C at line 1035
    Reading "system/controlDict" at line 2 to 41
    Entry 'dt' is not a dictionary
--> FOAM Warning : 
    From bool Foam::functionObjectList::read()
    in file db/functionObjects/functionObjectList/functionObjectList.C at line 1035
    Reading "system/controlDict" at line 2 to 41
    Entry 'tAvg' is not a dictionary
--> FOAM Warning : 
    From bool Foam::functionObjectList::read()
    in file db/functionObjects/functionObjectList/functionObjectList.C at line 1035
    Reading "system/controlDict" at line 2 to 41
    Entry 'tEnd' is not a dictionary
--> FOAM Warning : 
    From bool Foam::functionObjectList::read()
    in file db/functionObjects/functionObjectList/functionObjectList.C at line 1035
    Reading "system/controlDict" at line 2 to 41
    Entry 'writeInterval_' is not a dictionary
--> FOAM Warning : 
    From bool Foam::functionObjectList::read()
    in file db/functionObjects/functionObjectList/functionObjectList.C at line 1035
    Reading "system/controlDict" at line 2 to 41
    Entry 'nCores' is not a dictionary
--> FOAM Warning : 
    From bool Foam::functionObjectList::read()
    in file db/functionObjects/functionObjectList/functionObjectList.C at line 1035
    Reading "system/controlDict" at line 2 to 41
    Entry 'interpScheme' is not a dictionary
--> FOAM Warning : 
    From bool Foam::functionObjectList::read()
    in file db/functionObjects/functionObjectList/functionObjectList.C at line 1035
    Reading "system/controlDict" at line 2 to 41
    Entry 'probeField' is not a dictionary
wallShearStress wallShearStress:
    processing wall patches: 
        Windsor_Body
        CFDWT_Floor
        Windsor_Pins
        Windsor_Base
        Windsor_Body_2
        CFDWT_Floor_2
        Windsor_Pins_2
        Windsor_Base_2
        Windsor_Body_3
        CFDWT_Floor_3
        Windsor_Pins_3
        Windsor_Base_3
        Windsor_Body_4
        CFDWT_Floor_4
        Windsor_Pins_4
        Windsor_Base_4

pressure calc_cp:
    Operating mode: staticCoeff
    Not including hydrostatic effects

forceCoeffs forceCoeffsAll:
    rho: rhoInf
    Freestream density (rhoInf) set to 1
    Not including porosity effects
    magUInf: 40
    lRef   : 0.6375
    Aref   : 0.1124
    rhoInf : 1
    Selecting all coefficients
    - Drag force: Cd
    - Drag force front: Cd(f)
    - Drag force rear: Cd(r)
    - Lift force: Cl
    - Lift force front: Cl(f)
    - Lift force rear: Cl(r)
    - Pitch moment: CmPitch
    - Roll moment: CmRoll
    - Yaw moment: CmYaw
    - Side force: Cs
    - Side force front: Cs(f)
    - Side force rear: Cs(r)


forceCoeffs dragCoeffBase:
    rho: rhoInf
    Freestream density (rhoInf) set to 1
    Not including porosity effects
    magUInf: 40
    lRef   : 0.6375
    Aref   : 0.1124
    rhoInf : 1
    Selecting coefficients:
    - Drag force: Cd


Time = 1

velocityDampingConstraint velocityDamping damped 0 (0%) of cells, with max limit 300
[INFO] MatrixAssemblyU: 1789.324 [ms]
smoothSolver:  Solving for Ux, Initial residual = 0.999999999999132, Final residual = 0.08732233576025124, No Iterations 15
smoothSolver:  Solving for Uy, Initial residual = 1, Final residual = 0.08969304284504311, No Iterations 31
smoothSolver:  Solving for Uz, Initial residual = 1, Final residual = 0.03285812320514895, No Iterations 2
[INFO] MomentumPredictor: 1876.898 [ms]
[INFO] MatrixAssemblyPI: 329.063 [ms]
[INFO] MatrixAssemblyPII: 156.566 [ms]
GAMG:  Solving for p, Initial residual = 1, Final residual = 0.007971602819277441, No Iterations 24
[INFO] SolveP: 4131.01 [ms]
time step continuity errors : sum local = 0.002924822968243829, global = 1.05318462644334e-05, cumulative = 1.05318462644334e-05
[INFO] postSolveP: 79.663 [ms]
smoothSolver:  Solving for nuTilda, Initial residual = 0.9999999972912863, Final residual = 0.06431347745930344, No Iterations 3
[INFO] TimeStep: 9471.797 [ms]
ExecutionTime = 38.03 s  ClockTime = 38 s

--> FOAM Warning : 
    From virtual bool Foam::functionObjects::fieldSelection::checkSelection()
    in file functionObjects/fieldSelections/fieldSelection/fieldSelection.C at line 166
    Field k not found
--> FOAM Warning : 
    From virtual bool Foam::functionObjects::fieldSelection::checkSelection()
    in file functionObjects/fieldSelections/fieldSelection/fieldSelection.C at line 166
    Field gammaInt not found
--> FOAM Warning : 
    From virtual bool Foam::functionObjects::fieldSelection::checkSelection()
    in file functionObjects/fieldSelections/fieldSelection/fieldSelection.C at line 166
    Field omega not found
--> FOAM Warning : 
    From virtual bool Foam::functionObjects::fieldSelection::checkSelection()
    in file functionObjects/fieldSelections/fieldSelection/fieldSelection.C at line 166
    Field ReThetat not found
--> FOAM Warning : 
    From virtual bool Foam::functionObjects::fieldSelection::checkSelection()
    in file functionObjects/fieldSelections/fieldSelection/fieldSelection.C at line 166
    Field epsilon not found
--> FOAM Warning : 
    From virtual bool Foam::functionObjects::solverFieldSelection::updateSelection()
    in file functionObjects/fieldSelections/solverFieldSelection/solverFieldSelection.C at line 85
    Valid solver fields are: 3(U nuTilda p)Time = 2

velocityDampingConstraint velocityDamping damped 0 (0%) of cells, with max limit 300
[INFO] MatrixAssemblyU: 1682.722 [ms]
smoothSolver:  Solving for Ux, Initial residual = 0.2130557770992058, Final residual = 0.01840301431868414, No Iterations 13
smoothSolver:  Solving for Uy, Initial residual = 0.3544202486149873, Final residual = 0.03304514839326447, No Iterations 13
smoothSolver:  Solving for Uz, Initial residual = 0.3289419396385448, Final residual = 0.02813061183141013, No Iterations 13
[INFO] MomentumPredictor: 1574.121 [ms]
[INFO] MatrixAssemblyPI: 328.269 [ms]
[INFO] MatrixAssemblyPII: 156.526 [ms]
GAMG:  Solving for p, Initial residual = 0.2100313010167094, Final residual = 0.002014306672389974, No Iterations 12
[INFO] SolveP: 1858.946 [ms]
time step continuity errors : sum local = 0.04123823763155458, global = -0.0003630607422009963, cumulative = -0.0003525288959365629
[INFO] postSolveP: 79.00700000000001 [ms]
smoothSolver:  Solving for nuTilda, Initial residual = 0.4059927541681719, Final residual = 0.02532008968701444, No Iterations 1
[INFO] TimeStep: 6727.71 [ms]
ExecutionTime = 46.03 s  ClockTime = 46 s

Time = 3

velocityDampingConstraint velocityDamping damped 3324 (0.01%) of cells, with max limit 300
[INFO] MatrixAssemblyU: 1689.409 [ms]
smoothSolver:  Solving for Ux, Initial residual = 0.125798477858817, Final residual = 0.01194809067144803, No Iterations 9
smoothSolver:  Solving for Uy, Initial residual = 0.2046369387636501, Final residual = 0.01994046368469017, No Iterations 10
smoothSolver:  Solving for Uz, Initial residual = 0.2163345063173348, Final residual = 0.02143638965393346, No Iterations 9
[INFO] MomentumPredictor: 1208.535 [ms]
[INFO] MatrixAssemblyPI: 328.398 [ms]
[INFO] MatrixAssemblyPII: 155.334 [ms]
GAMG:  Solving for p, Initial residual = 0.1073214768245699, Final residual = 0.001005044604520634, No Iterations 10
[INFO] SolveP: 1563.319 [ms]
time step continuity errors : sum local = 0.0122902157085341, global = -0.0001547730386415653, cumulative = -0.0005073019345781281
[INFO] postSolveP: 79.29000000000001 [ms]
smoothSolver:  Solving for nuTilda, Initial residual = 0.208469205727166, Final residual = 0.01316248351268013, No Iterations 2
[INFO] TimeStep: 6105.99 [ms]
ExecutionTime = 53.41 s  ClockTime = 54 s

Time = 4

velocityDampingConstraint velocityDamping damped 0 (0%) of cells, with max limit 300
[INFO] MatrixAssemblyU: 1694.12 [ms]
smoothSolver:  Solving for Ux, Initial residual = 0.05400986682399059, Final residual = 0.004904328118882926, No Iterations 11
smoothSolver:  Solving for Uy, Initial residual = 0.1211251167661072, Final residual = 0.01064575268401459, No Iterations 11
smoothSolver:  Solving for Uz, Initial residual = 0.1309937888065157, Final residual = 0.01264428234949132, No Iterations 10
[INFO] MomentumPredictor: 1336.678 [ms]
[INFO] MatrixAssemblyPI: 328.008 [ms]
[INFO] MatrixAssemblyPII: 153.985 [ms]
GAMG:  Solving for p, Initial residual = 0.1453037173855457, Final residual = 0.001130454050406553, No Iterations 7
[INFO] SolveP: 1115.492 [ms]
time step continuity errors : sum local = 0.01046737789851263, global = 0.0001401486351909836, cumulative = -0.0003671532993871445
[INFO] postSolveP: 79.536 [ms]
smoothSolver:  Solving for nuTilda, Initial residual = 0.1247909161949907, Final residual = 0.01049811134562666, No Iterations 2
[INFO] TimeStep: 5785.563 [ms]
ExecutionTime = 60.48 s  ClockTime = 61 s

Time = 5

velocityDampingConstraint velocityDamping damped 455 (0%) of cells, with max limit 300
[INFO] MatrixAssemblyU: 1684.663 [ms]
smoothSolver:  Solving for Ux, Initial residual = 0.04382304112393015, Final residual = 0.004179234322800818, No Iterations 10
smoothSolver:  Solving for Uy, Initial residual = 0.09668658387504907, Final residual = 0.009023947620755613, No Iterations 11
smoothSolver:  Solving for Uz, Initial residual = 0.113249128598964, Final residual = 0.01113227425478529, No Iterations 10
[INFO] MomentumPredictor: 1306.09 [ms]
[INFO] MatrixAssemblyPI: 328.734 [ms]
[INFO] MatrixAssemblyPII: 154.781 [ms]
GAMG:  Solving for p, Initial residual = 0.110932150489952, Final residual = 0.0010626527018704, No Iterations 7
[INFO] SolveP: 1116.843 [ms]
time step continuity errors : sum local = 0.007339109550716739, global = 0.0002132159604462021, cumulative = -0.0001539373389409425
[INFO] postSolveP: 78.827 [ms]
smoothSolver:  Solving for nuTilda, Initial residual = 0.07087443212516893, Final residual = 0.004313025938669121, No Iterations 3
[INFO] TimeStep: 5777.039 [ms]
ExecutionTime = 67.54000000000001 s  ClockTime = 68 s

Time = 6

velocityDampingConstraint velocityDamping damped 0 (0%) of cells, with max limit 300
[INFO] MatrixAssemblyU: 1682.16 [ms]
smoothSolver:  Solving for Ux, Initial residual = 0.02987183889564942, Final residual = 0.002660992487745464, No Iterations 12
smoothSolver:  Solving for Uy, Initial residual = 0.07441480069296855, Final residual = 0.00688540316578734, No Iterations 12
smoothSolver:  Solving for Uz, Initial residual = 0.08126749710420944, Final residual = 0.006966010318692817, No Iterations 12
[INFO] MomentumPredictor: 1472.858 [ms]
[INFO] MatrixAssemblyPI: 327.984 [ms]
[INFO] MatrixAssemblyPII: 155.463 [ms]
GAMG:  Solving for p, Initial residual = 0.09333245677697517, Final residual = 0.0009133339459353622, No Iterations 6
[INFO] SolveP: 967.7670000000001 [ms]
time step continuity errors : sum local = 0.006925352988672803, global = 5.724722978085374e-05, cumulative = -9.669010916008873e-05
[INFO] postSolveP: 79.084 [ms]
smoothSolver:  Solving for nuTilda, Initial residual = 0.06429099208499234, Final residual = 0.003002853329200438, No Iterations 3
[INFO] TimeStep: 5791.112 [ms]
ExecutionTime = 74.59999999999999 s  ClockTime = 75 s

Time = 7

velocityDampingConstraint velocityDamping damped 53 (0%) of cells, with max limit 300
[INFO] MatrixAssemblyU: 1679.006 [ms]
smoothSolver:  Solving for Ux, Initial residual = 0.02702501603333678, Final residual = 0.002415436949890041, No Iterations 12
smoothSolver:  Solving for Uy, Initial residual = 0.06740363848734567, Final residual = 0.006415736748979521, No Iterations 12
smoothSolver:  Solving for Uz, Initial residual = 0.07129241405850896, Final residual = 0.006261151410690753, No Iterations 12
[INFO] MomentumPredictor: 1472.223 [ms]
[INFO] MatrixAssemblyPI: 329.027 [ms]
[INFO] MatrixAssemblyPII: 155.548 [ms]
GAMG:  Solving for p, Initial residual = 0.07956480440986098, Final residual = 0.0006945185593293375, No Iterations 6
[INFO] SolveP: 968.855 [ms]
time step continuity errors : sum local = 0.005285099205385172, global = -5.140409898281008e-05, cumulative = -0.0001480942081428988
[INFO] postSolveP: 79.065 [ms]
smoothSolver:  Solving for nuTilda, Initial residual = 0.04910297462964028, Final residual = 0.003230449667215058, No Iterations 3
[INFO] TimeStep: 5789.348 [ms]
ExecutionTime = 81.66 s  ClockTime = 82 s

Time = 8

velocityDampingConstraint velocityDamping damped 0 (0%) of cells, with max limit 300
[INFO] MatrixAssemblyU: 1676.223 [ms]
smoothSolver:  Solving for Ux, Initial residual = 0.02311059565894961, Final residual = 0.002144235987328828, No Iterations 12
smoothSolver:  Solving for Uy, Initial residual = 0.06015496602707381, Final residual = 0.005922947786570589, No Iterations 12
smoothSolver:  Solving for Uz, Initial residual = 0.06213014804370964, Final residual = 0.00564093136648503, No Iterations 12
[INFO] MomentumPredictor: 1470.14 [ms]
[INFO] MatrixAssemblyPI: 328.542 [ms]
[INFO] MatrixAssemblyPII: 155.516 [ms]
GAMG:  Solving for p, Initial residual = 0.07297052070205558, Final residual = 0.0004761513881448377, No Iterations 6
[INFO] SolveP: 969.311 [ms]
time step continuity errors : sum local = 0.003647336892039574, global = -3.023782179150945e-05, cumulative = -0.0001783320299344083
[INFO] postSolveP: 79.197 [ms]
smoothSolver:  Solving for nuTilda, Initial residual = 0.06543876914853065, Final residual = 0.005858046595244732, No Iterations 2
[INFO] TimeStep: 5749.453 [ms]
ExecutionTime = 88.67 s  ClockTime = 89 s

Time = 9

velocityDampingConstraint velocityDamping damped 0 (0%) of cells, with max limit 300
[INFO] MatrixAssemblyU: 1672.855 [ms]
smoothSolver:  Solving for Ux, Initial residual = 0.02038757375928827, Final residual = 0.001904961290846475, No Iterations 12
smoothSolver:  Solving for Uy, Initial residual = 0.05429624295601506, Final residual = 0.005428975829506427, No Iterations 12
smoothSolver:  Solving for Uz, Initial residual = 0.05523475868209377, Final residual = 0.005136809283682086, No Iterations 12
[INFO] MomentumPredictor: 1464.644 [ms]
[INFO] MatrixAssemblyPI: 327.949 [ms]
[INFO] MatrixAssemblyPII: 154.714 [ms]
GAMG:  Solving for p, Initial residual = 0.06720443990128186, Final residual = 0.0006238189349470539, No Iterations 5
[INFO] SolveP: 818.881 [ms]
time step continuity errors : sum local = 0.00479327631879542, global = -3.08816935795947e-05, cumulative = -0.000209213723514003
[INFO] postSolveP: 79.003 [ms]
smoothSolver:  Solving for nuTilda, Initial residual = 0.04412736218767196, Final residual = 0.003201443761237069, No Iterations 3
[INFO] TimeStep: 5622.843 [ms]
ExecutionTime = 95.56 s  ClockTime = 96 s

Time = 10

velocityDampingConstraint velocityDamping damped 0 (0%) of cells, with max limit 300
[INFO] MatrixAssemblyU: 1674.2 [ms]
smoothSolver:  Solving for Ux, Initial residual = 0.01833656917789975, Final residual = 0.001727568731826645, No Iterations 12
smoothSolver:  Solving for Uy, Initial residual = 0.05008661332401915, Final residual = 0.00499305133554563, No Iterations 12
smoothSolver:  Solving for Uz, Initial residual = 0.0505013736114495, Final residual = 0.004762863599181022, No Iterations 12
[INFO] MomentumPredictor: 1477.224 [ms]
[INFO] MatrixAssemblyPI: 328.084 [ms]
[INFO] MatrixAssemblyPII: 153.013 [ms]
GAMG:  Solving for p, Initial residual = 0.06145322514001797, Final residual = 0.0005800987212304036, No Iterations 5
[INFO] SolveP: 819.2089999999999 [ms]
time step continuity errors : sum local = 0.004419865742947887, global = 2.869008097964607e-06, cumulative = -0.0002063447154160384
[INFO] postSolveP: 79.46299999999999 [ms]
smoothSolver:  Solving for nuTilda, Initial residual = 0.06978376897185437, Final residual = 0.005486036039020468, No Iterations 2
[INFO] TimeStep: 5602.971 [ms]
ExecutionTime = 102.43 s  ClockTime = 103 s

Time = 11

velocityDampingConstraint velocityDamping damped 0 (0%) of cells, with max limit 300
[INFO] MatrixAssemblyU: 1674.926 [ms]
smoothSolver:  Solving for Ux, Initial residual = 0.01668758719443962, Final residual = 0.001604857679839887, No Iterations 12
smoothSolver:  Solving for Uy, Initial residual = 0.04730674790689087, Final residual = 0.00468083426789837, No Iterations 12
smoothSolver:  Solving for Uz, Initial residual = 0.04731883312680486, Final residual = 0.004492952655892792, No Iterations 12
[INFO] MomentumPredictor: 1464.244 [ms]
[INFO] MatrixAssemblyPI: 328.256 [ms]
[INFO] MatrixAssemblyPII: 155.762 [ms]
GAMG:  Solving for p, Initial residual = 0.05696945198713928, Final residual = 0.00056645083805839, No Iterations 5
[INFO] SolveP: 821.468 [ms]
time step continuity errors : sum local = 0.004341919597631085, global = 2.539969927338171e-05, cumulative = -0.0001809450161426566
[INFO] postSolveP: 78.40600000000001 [ms]
smoothSolver:  Solving for nuTilda, Initial residual = 0.03912236302921157, Final residual = 0.003026919529566804, No Iterations 3
[INFO] TimeStep: 5626.853 [ms]
ExecutionTime = 109.32 s  ClockTime = 110 s

Time = 12

velocityDampingConstraint velocityDamping damped 0 (0%) of cells, with max limit 300
[INFO] MatrixAssemblyU: 1673.927 [ms]
smoothSolver:  Solving for Ux, Initial residual = 0.01555372961437346, Final residual = 0.001518425186004193, No Iterations 12
smoothSolver:  Solving for Uy, Initial residual = 0.04528552502509126, Final residual = 0.004450649683434592, No Iterations 12
smoothSolver:  Solving for Uz, Initial residual = 0.04490542111985448, Final residual = 0.004284880217599794, No Iterations 12
[INFO] MomentumPredictor: 1472.876 [ms]
[INFO] MatrixAssemblyPI: 328.581 [ms]
[INFO] MatrixAssemblyPII: 154.351 [ms]
GAMG:  Solving for p, Initial residual = 0.05301885361216822, Final residual = 0.0003355574576101605, No Iterations 6
[INFO] SolveP: 969.741 [ms]
time step continuity errors : sum local = 0.002586778235720992, global = 3.054681708302936e-05, cumulative = -0.0001503981990596273
[INFO] postSolveP: 79.702 [ms]
smoothSolver:  Solving for nuTilda, Initial residual = 0.0655382041718463, Final residual = 0.005100844010295418, No Iterations 2
[INFO] TimeStep: 5749.163 [ms]
ExecutionTime = 116.33 s  ClockTime = 117 s

Time = 13

velocityDampingConstraint velocityDamping damped 0 (0%) of cells, with max limit 300
[INFO] MatrixAssemblyU: 1671.865 [ms]
smoothSolver:  Solving for Ux, Initial residual = 0.01452740809966899, Final residual = 0.001445378887471222, No Iterations 12
smoothSolver:  Solving for Uy, Initial residual = 0.04340150054073155, Final residual = 0.004256183496454935, No Iterations 12
smoothSolver:  Solving for Uz, Initial residual = 0.0430801709963487, Final residual = 0.004137410233290391, No Iterations 12
[INFO] MomentumPredictor: 1476.843 [ms]
[INFO] MatrixAssemblyPI: 328.569 [ms]
[INFO] MatrixAssemblyPII: 154.613 [ms]
GAMG:  Solving for p, Initial residual = 0.04974426248381046, Final residual = 0.0003146738964318821, No Iterations 6
[INFO] SolveP: 971.258 [ms]
time step continuity errors : sum local = 0.002443069766737602, global = 2.831491001395367e-05, cumulative = -0.0001220832890456736
[INFO] postSolveP: 78.489 [ms]
smoothSolver:  Solving for nuTilda, Initial residual = 0.03468281050362252, Final residual = 0.002829701777965949, No Iterations 3
[INFO] TimeStep: 5782.99 [ms]
ExecutionTime = 123.38 s  ClockTime = 124 s

Time = 14

velocityDampingConstraint velocityDamping damped 0 (0%) of cells, with max limit 300
[INFO] MatrixAssemblyU: 1672.3 [ms]
smoothSolver:  Solving for Ux, Initial residual = 0.01368915712008722, Final residual = 0.001173512858966889, No Iterations 13
smoothSolver:  Solving for Uy, Initial residual = 0.04158612052472124, Final residual = 0.004088116602393085, No Iterations 12
smoothSolver:  Solving for Uz, Initial residual = 0.04203236223513902, Final residual = 0.004058199684221684, No Iterations 12
[INFO] MomentumPredictor: 1500.614 [ms]
[INFO] MatrixAssemblyPI: 328.846 [ms]
[INFO] MatrixAssemblyPII: 153.927 [ms]
GAMG:  Solving for p, Initial residual = 0.0472672386232615, Final residual = 0.0002981919285236542, No Iterations 6
[INFO] SolveP: 967.158 [ms]
time step continuity errors : sum local = 0.002325785166076028, global = 1.51576484782072e-05, cumulative = -0.0001069256405674664
[INFO] postSolveP: 78.526 [ms]
smoothSolver:  Solving for nuTilda, Initial residual = 0.05812195129675418, Final residual = 0.004800946479999246, No Iterations 2
[INFO] TimeStep: 5770.971 [ms]
ExecutionTime = 130.41 s  ClockTime = 131 s

Time = 15

velocityDampingConstraint velocityDamping damped 0 (0%) of cells, with max limit 300
[INFO] MatrixAssemblyU: 1672.761 [ms]
smoothSolver:  Solving for Ux, Initial residual = 0.01282132782802443, Final residual = 0.001110420273185662, No Iterations 13
smoothSolver:  Solving for Uy, Initial residual = 0.04015984312653448, Final residual = 0.003973328004424987, No Iterations 12
smoothSolver:  Solving for Uz, Initial residual = 0.04167621941944488, Final residual = 0.00404796405911745, No Iterations 12
[INFO] MomentumPredictor: 1507.549 [ms]
[INFO] MatrixAssemblyPI: 327.815 [ms]
[INFO] MatrixAssemblyPII: 153.509 [ms]
GAMG:  Solving for p, Initial residual = 0.04566425902015463, Final residual = 0.0002953904292149844, No Iterations 6
[INFO] SolveP: 967.824 [ms]
time step continuity errors : sum local = 0.002315052723956301, global = -2.253937601436397e-06, cumulative = -0.0001091795781689028
[INFO] postSolveP: 78.934 [ms]
smoothSolver:  Solving for nuTilda, Initial residual = 0.03130489655664298, Final residual = 0.002662714408556328, No Iterations 3
[INFO] TimeStep: 5812.447 [ms]
ExecutionTime = 137.48 s  ClockTime = 138 s

Time = 16

velocityDampingConstraint velocityDamping damped 0 (0%) of cells, with max limit 300
[INFO] MatrixAssemblyU: 1672.354 [ms]
smoothSolver:  Solving for Ux, Initial residual = 0.01218339004655177, Final residual = 0.001054588506908322, No Iterations 13
smoothSolver:  Solving for Uy, Initial residual = 0.03924013036459238, Final residual = 0.00390094347941679, No Iterations 12
smoothSolver:  Solving for Uz, Initial residual = 0.04159574873974797, Final residual = 0.004051220330342177, No Iterations 12
[INFO] MomentumPredictor: 1507.524 [ms]
[INFO] MatrixAssemblyPI: 328.421 [ms]
[INFO] MatrixAssemblyPII: 154.77 [ms]
GAMG:  Solving for p, Initial residual = 0.04436978010065758, Final residual = 0.0002984382866041144, No Iterations 6
[INFO] SolveP: 968.481 [ms]
time step continuity errors : sum local = 0.002346602563817387, global = -1.320385668887508e-05, cumulative = -0.0001223834348577779
[INFO] postSolveP: 78.97499999999999 [ms]
smoothSolver:  Solving for nuTilda, Initial residual = 0.05167273825550121, Final residual = 0.004552095604364253, No Iterations 2
[INFO] TimeStep: 5780.332 [ms]
ExecutionTime = 144.53 s  ClockTime = 145 s

Time = 17

velocityDampingConstraint velocityDamping damped 0 (0%) of cells, with max limit 300
[INFO] MatrixAssemblyU: 1670.062 [ms]
smoothSolver:  Solving for Ux, Initial residual = 0.01156471190243607, Final residual = 0.001005973274119755, No Iterations 13
smoothSolver:  Solving for Uy, Initial residual = 0.0386979168374836, Final residual = 0.003868703648184196, No Iterations 12
smoothSolver:  Solving for Uz, Initial residual = 0.04154563054568367, Final residual = 0.004054429165049793, No Iterations 12
[INFO] MomentumPredictor: 1499.745 [ms]
[INFO] MatrixAssemblyPI: 327.473 [ms]
[INFO] MatrixAssemblyPII: 155.056 [ms]
GAMG:  Solving for p, Initial residual = 0.04388942809862621, Final residual = 0.0003000733535312214, No Iterations 6
[INFO] SolveP: 972.285 [ms]
time step continuity errors : sum local = 0.002373642065625723, global = -1.622589203380515e-05, cumulative = -0.0001386093268915831
[INFO] postSolveP: 79.422 [ms]
smoothSolver:  Solving for nuTilda, Initial residual = 0.02881829292185226, Final residual = 0.002513863635890561, No Iterations 3
[INFO] TimeStep: 5807.054 [ms]
ExecutionTime = 151.59 s  ClockTime = 152 s

Time = 18

velocityDampingConstraint velocityDamping damped 0 (0%) of cells, with max limit 300
[INFO] MatrixAssemblyU: 1669.838 [ms]
smoothSolver:  Solving for Ux, Initial residual = 0.01122032749166063, Final residual = 0.0009661158766441706, No Iterations 13
smoothSolver:  Solving for Uy, Initial residual = 0.03856028408185511, Final residual = 0.003298315110930171, No Iterations 13
smoothSolver:  Solving for Uz, Initial residual = 0.04174268562607909, Final residual = 0.004059125496190526, No Iterations 12
[INFO] MomentumPredictor: 1543.553 [ms]
[INFO] MatrixAssemblyPI: 328.827 [ms]
[INFO] MatrixAssemblyPII: 154.572 [ms]
GAMG:  Solving for p, Initial residual = 0.04378849620387418, Final residual = 0.0002962215805363061, No Iterations 6
[INFO] SolveP: 967.941 [ms]
time step continuity errors : sum local = 0.00235818980826559, global = -8.002086807068201e-06, cumulative = -0.0001466114136986513
[INFO] postSolveP: 79.425 [ms]
smoothSolver:  Solving for nuTilda, Initial residual = 0.04633525601511603, Final residual = 0.004301582501455399, No Iterations 2
[INFO] TimeStep: 5810.684 [ms]
ExecutionTime = 158.66 s  ClockTime = 159 s

Time = 19

velocityDampingConstraint velocityDamping damped 0 (0%) of cells, with max limit 300
[INFO] MatrixAssemblyU: 1667.852 [ms]
smoothSolver:  Solving for Ux, Initial residual = 0.0108704901506209, Final residual = 0.0009358313763883227, No Iterations 13
smoothSolver:  Solving for Uy, Initial residual = 0.03883566615119666, Final residual = 0.003316893244914973, No Iterations 13
smoothSolver:  Solving for Uz, Initial residual = 0.04251222693184013, Final residual = 0.004105845297978194, No Iterations 12
[INFO] MomentumPredictor: 1532.231 [ms]
[INFO] MatrixAssemblyPI: 328.895 [ms]
[INFO] MatrixAssemblyPII: 154.458 [ms]
GAMG:  Solving for p, Initial residual = 0.04400850937380361, Final residual = 0.000275353191771423, No Iterations 6
[INFO] SolveP: 969.825 [ms]
time step continuity errors : sum local = 0.002206531692375817, global = 5.265756981510706e-06, cumulative = -0.0001413456567171405
[INFO] postSolveP: 78.70999999999999 [ms]
smoothSolver:  Solving for nuTilda, Initial residual = 0.02687435451287369, Final residual = 0.002364799402069021, No Iterations 3
[INFO] TimeStep: 5834.465 [ms]
ExecutionTime = 165.75 s  ClockTime = 166 s

Time = 20

velocityDampingConstraint velocityDamping damped 0 (0%) of cells, with max limit 300
[INFO] MatrixAssemblyU: 1669.621 [ms]
smoothSolver:  Solving for Ux, Initial residual = 0.01069541902401518, Final residual = 0.0009166331210179795, No Iterations 13
smoothSolver:  Solving for Uy, Initial residual = 0.03922508541429846, Final residual = 0.003914641570363878, No Iterations 12
smoothSolver:  Solving for Uz, Initial residual = 0.04312929988780864, Final residual = 0.004139599869152392, No Iterations 12
[INFO] MomentumPredictor: 1508.636 [ms]
[INFO] MatrixAssemblyPI: 328.461 [ms]
[INFO] MatrixAssemblyPII: 155.081 [ms]
GAMG:  Solving for p, Initial residual = 0.04390523930927348, Final residual = 0.0004390091350021152, No Iterations 5
[INFO] SolveP: 820.704 [ms]
time step continuity errors : sum local = 0.0035496182254769, global = 1.757104600523144e-05, cumulative = -0.0001237746107119091
[INFO] postSolveP: 79.453 [ms]
smoothSolver:  Solving for nuTilda, Initial residual = 0.04179552570879725, Final residual = 0.004048003343343936, No Iterations 2
[INFO] TimeStep: 5629.418 [ms]
ExecutionTime = 172.64 s  ClockTime = 173 s

Time = 21

velocityDampingConstraint velocityDamping damped 0 (0%) of cells, with max limit 300
[INFO] MatrixAssemblyU: 1669.621 [ms]
smoothSolver:  Solving for Ux, Initial residual = 0.01048954354618742, Final residual = 0.000902470938559391, No Iterations 13
smoothSolver:  Solving for Uy, Initial residual = 0.03983967333492765, Final residual = 0.003960865048910214, No Iterations 12
smoothSolver:  Solving for Uz, Initial residual = 0.04345676822271191, Final residual = 0.004135374091251379, No Iterations 12
[INFO] MomentumPredictor: 1505.508 [ms]
[INFO] MatrixAssemblyPI: 328.514 [ms]
[INFO] MatrixAssemblyPII: 154.352 [ms]
GAMG:  Solving for p, Initial residual = 0.04395107877771837, Final residual = 0.0002755205442193909, No Iterations 6
[INFO] SolveP: 970.285 [ms]
time step continuity errors : sum local = 0.002254597025135124, global = 2.445581159270103e-05, cumulative = -9.931879911920808e-05
[INFO] postSolveP: 78.631 [ms]
smoothSolver:  Solving for nuTilda, Initial residual = 0.02511501477912159, Final residual = 0.002219549636021166, No Iterations 3
[INFO] TimeStep: 5808.541 [ms]
ExecutionTime = 179.7 s  ClockTime = 181 s

Time = 22

velocityDampingConstraint velocityDamping damped 0 (0%) of cells, with max limit 300
[INFO] MatrixAssemblyU: 1669.172 [ms]
smoothSolver:  Solving for Ux, Initial residual = 0.010458209499181, Final residual = 0.0008919761914916031, No Iterations 13
smoothSolver:  Solving for Uy, Initial residual = 0.04050404088207137, Final residual = 0.003989466545090471, No Iterations 12
smoothSolver:  Solving for Uz, Initial residual = 0.04344126505535965, Final residual = 0.004101631585692213, No Iterations 12
[INFO] MomentumPredictor: 1507.012 [ms]
[INFO] MatrixAssemblyPI: 328.47 [ms]
[INFO] MatrixAssemblyPII: 152.859 [ms]
GAMG:  Solving for p, Initial residual = 0.04362580465827161, Final residual = 0.000280003001336132, No Iterations 6
[INFO] SolveP: 970.6660000000001 [ms]
time step continuity errors : sum local = 0.002326807339524816, global = 2.738322607969345e-05, cumulative = -7.193557303951462e-05
[INFO] postSolveP: 79.547 [ms]
smoothSolver:  Solving for nuTilda, Initial residual = 0.03793983848651066, Final residual = 0.002019037115125543, No Iterations 3
[INFO] TimeStep: 5809.765 [ms]
ExecutionTime = 186.77 s  ClockTime = 188 s

Time = 23

velocityDampingConstraint velocityDamping damped 0 (0%) of cells, with max limit 300
[INFO] MatrixAssemblyU: 1667.292 [ms]
smoothSolver:  Solving for Ux, Initial residual = 0.01032828638255974, Final residual = 0.0008824633886606279, No Iterations 13
smoothSolver:  Solving for Uy, Initial residual = 0.04109468821356426, Final residual = 0.003992789899910716, No Iterations 12
smoothSolver:  Solving for Uz, Initial residual = 0.0430082727844846, Final residual = 0.004017114467774304, No Iterations 12
[INFO] MomentumPredictor: 1504.173 [ms]
[INFO] MatrixAssemblyPI: 328.703 [ms]
[INFO] MatrixAssemblyPII: 154.855 [ms]
GAMG:  Solving for p, Initial residual = 0.04335349672599025, Final residual = 0.0002943998573959583, No Iterations 6
[INFO] SolveP: 969.4690000000001 [ms]
time step continuity errors : sum local = 0.00248469182092005, global = 3.254915892601804e-05, cumulative = -3.938641411349659e-05
[INFO] postSolveP: 78.45999999999999 [ms]
smoothSolver:  Solving for nuTilda, Initial residual = 0.02332777836015535, Final residual = 0.002088055117070797, No Iterations 3
[INFO] TimeStep: 5802.952 [ms]
ExecutionTime = 193.83 s  ClockTime = 195 s

Time = 24

velocityDampingConstraint velocityDamping damped 0 (0%) of cells, with max limit 300
[INFO] MatrixAssemblyU: 1667.787 [ms]
smoothSolver:  Solving for Ux, Initial residual = 0.01034887399187759, Final residual = 0.001028896171496436, No Iterations 12
smoothSolver:  Solving for Uy, Initial residual = 0.04179606081450456, Final residual = 0.004029131217546394, No Iterations 12
smoothSolver:  Solving for Uz, Initial residual = 0.04257550319743766, Final residual = 0.003939289217393816, No Iterations 12
[INFO] MomentumPredictor: 1472.329 [ms]
[INFO] MatrixAssemblyPI: 328.247 [ms]
[INFO] MatrixAssemblyPII: 154.496 [ms]
GAMG:  Solving for p, Initial residual = 0.04297180295685382, Final residual = 0.0002862030686135364, No Iterations 6
[INFO] SolveP: 968.0940000000001 [ms]
time step continuity errors : sum local = 0.002456344135168028, global = 3.280626613277506e-05, cumulative = -6.58014798072153e-06
[INFO] postSolveP: 79.166 [ms]
smoothSolver:  Solving for nuTilda, Initial residual = 0.03444671665774554, Final residual = 0.001909918025898835, No Iterations 3
[INFO] TimeStep: 5770.113 [ms]
ExecutionTime = 200.86 s  ClockTime = 202 s

Time = 25

velocityDampingConstraint velocityDamping damped 0 (0%) of cells, with max limit 300
[INFO] MatrixAssemblyU: 1667.003 [ms]
smoothSolver:  Solving for Ux, Initial residual = 0.01028998598004985, Final residual = 0.0008802921745812562, No Iterations 13
smoothSolver:  Solving for Uy, Initial residual = 0.04261583800406661, Final residual = 0.004119728837040228, No Iterations 12
smoothSolver:  Solving for Uz, Initial residual = 0.04231179052425754, Final residual = 0.003904020450229296, No Iterations 12
[INFO] MomentumPredictor: 1504.685 [ms]
[INFO] MatrixAssemblyPI: 327.89 [ms]
[INFO] MatrixAssemblyPII: 152.69 [ms]
GAMG:  Solving for p, Initial residual = 0.04228382615154045, Final residual = 0.0002809971911987159, No Iterations 6
[INFO] SolveP: 969.79 [ms]
time step continuity errors : sum local = 0.002454523452334822, global = 3.939816133389647e-05, cumulative = 3.281801335317494e-05
[INFO] postSolveP: 78.846 [ms]
smoothSolver:  Solving for nuTilda, Initial residual = 0.02149161835189134, Final residual = 0.001956983770484532, No Iterations 3
[INFO] TimeStep: 5803.85 [ms]
ExecutionTime = 207.92 s  ClockTime = 209 s

Time = 26

velocityDampingConstraint velocityDamping damped 0 (0%) of cells, with max limit 300
[INFO] MatrixAssemblyU: 1667.93 [ms]
smoothSolver:  Solving for Ux, Initial residual = 0.01036397969785203, Final residual = 0.001032745733431559, No Iterations 12
smoothSolver:  Solving for Uy, Initial residual = 0.04353941563960172, Final residual = 0.004268268844963972, No Iterations 12
smoothSolver:  Solving for Uz, Initial residual = 0.04230131131217659, Final residual = 0.003948069454179135, No Iterations 12
[INFO] MomentumPredictor: 1466.447 [ms]
[INFO] MatrixAssemblyPI: 328.448 [ms]
[INFO] MatrixAssemblyPII: 154.468 [ms]
GAMG:  Solving for p, Initial residual = 0.0418604282621844, Final residual = 0.0002961879038537464, No Iterations 6
[INFO] SolveP: 968.9880000000001 [ms]
time step continuity errors : sum local = 0.002621057831304628, global = 4.186807768345341e-05, cumulative = 7.468609103662835e-05
[INFO] postSolveP: 79.489 [ms]
smoothSolver:  Solving for nuTilda, Initial residual = 0.03148084932755393, Final residual = 0.001804273156956116, No Iterations 3
[INFO] TimeStep: 5767.989 [ms]
ExecutionTime = 214.94 s  ClockTime = 216 s

Time = 27

velocityDampingConstraint velocityDamping damped 0 (0%) of cells, with max limit 300
[INFO] MatrixAssemblyU: 1668.035 [ms]
smoothSolver:  Solving for Ux, Initial residual = 0.01036343944702167, Final residual = 0.001034395541055191, No Iterations 12
smoothSolver:  Solving for Uy, Initial residual = 0.04455664855338191, Final residual = 0.004434352405309658, No Iterations 12
smoothSolver:  Solving for Uz, Initial residual = 0.04258816149860326, Final residual = 0.004030757226983153, No Iterations 12
[INFO] MomentumPredictor: 1472.25 [ms]
[INFO] MatrixAssemblyPI: 329.012 [ms]
[INFO] MatrixAssemblyPII: 155.642 [ms]
GAMG:  Solving for p, Initial residual = 0.04207405648612531, Final residual = 0.0003066587593980852, No Iterations 6
[INFO] SolveP: 970.093 [ms]
time step continuity errors : sum local = 0.00275082385596104, global = 4.803555257892107e-05, cumulative = 0.0001227216436155494
[INFO] postSolveP: 78.607 [ms]
smoothSolver:  Solving for nuTilda, Initial residual = 0.0198198841798752, Final residual = 0.001831643893419416, No Iterations 3
[INFO] TimeStep: 5772.755 [ms]
ExecutionTime = 221.97 s  ClockTime = 223 s

Time = 28

velocityDampingConstraint velocityDamping damped 0 (0%) of cells, with max limit 300
[INFO] MatrixAssemblyU: 1667.156 [ms]
smoothSolver:  Solving for Ux, Initial residual = 0.01050800601798762, Final residual = 0.001038032668540302, No Iterations 12
smoothSolver:  Solving for Uy, Initial residual = 0.04589963668796819, Final residual = 0.003934335740221674, No Iterations 13
smoothSolver:  Solving for Uz, Initial residual = 0.0435896977388362, Final residual = 0.004142519693792719, No Iterations 12
[INFO] MomentumPredictor: 1503.949 [ms]
[INFO] MatrixAssemblyPI: 328.128 [ms]
[INFO] MatrixAssemblyPII: 153.557 [ms]
GAMG:  Solving for p, Initial residual = 0.04295828616570042, Final residual = 0.0003097203405871001, No Iterations 6
[INFO] SolveP: 968.611 [ms]
time step continuity errors : sum local = 0.002816274123658426, global = 4.977349112550503e-05, cumulative = 0.0001724951347410545
[INFO] postSolveP: 79.22499999999999 [ms]
smoothSolver:  Solving for nuTilda, Initial residual = 0.02894673098624585, Final residual = 0.001697369387218071, No Iterations 3
[INFO] TimeStep: 5801.621 [ms]
ExecutionTime = 229.03 s  ClockTime = 230 s

Time = 29

velocityDampingConstraint velocityDamping damped 0 (0%) of cells, with max limit 300
[INFO] MatrixAssemblyU: 1666.032 [ms]
smoothSolver:  Solving for Ux, Initial residual = 0.01054748737458304, Final residual = 0.001040178852559625, No Iterations 12
smoothSolver:  Solving for Uy, Initial residual = 0.0474697259902835, Final residual = 0.004070612144932236, No Iterations 13
smoothSolver:  Solving for Uz, Initial residual = 0.04502692634427334, Final residual = 0.004282956733747558, No Iterations 12
[INFO] MomentumPredictor: 1507.19 [ms]
[INFO] MatrixAssemblyPI: 328.452 [ms]
[INFO] MatrixAssemblyPII: 155.788 [ms]
GAMG:  Solving for p, Initial residual = 0.04390742387521951, Final residual = 0.0002944575311052523, No Iterations 6
[INFO] SolveP: 967.972 [ms]
time step continuity errors : sum local = 0.002714444421604089, global = 4.925525317945971e-05, cumulative = 0.0002217503879205142
[INFO] postSolveP: 78.923 [ms]
smoothSolver:  Solving for nuTilda, Initial residual = 0.01833643139759469, Final residual = 0.001708310762631787, No Iterations 3
[INFO] TimeStep: 5803.101 [ms]
ExecutionTime = 236.08 s  ClockTime = 237 s

Time = 30

velocityDampingConstraint velocityDamping damped 0 (0%) of cells, with max limit 300
[INFO] MatrixAssemblyU: 1666.227 [ms]
smoothSolver:  Solving for Ux, Initial residual = 0.01074340733383826, Final residual = 0.001046644496978729, No Iterations 12
smoothSolver:  Solving for Uy, Initial residual = 0.04952737691462721, Final residual = 0.004217339580810189, No Iterations 13
smoothSolver:  Solving for Uz, Initial residual = 0.04660964422745903, Final residual = 0.004415670183531658, No Iterations 12
[INFO] MomentumPredictor: 1508.631 [ms]
[INFO] MatrixAssemblyPI: 327.699 [ms]
[INFO] MatrixAssemblyPII: 153.748 [ms]
GAMG:  Solving for p, Initial residual = 0.04478692297803862, Final residual = 0.0002782631778935396, No Iterations 6
[INFO] SolveP: 967.059 [ms]
time step continuity errors : sum local = 0.002601793594910136, global = 4.306239671417799e-05, cumulative = 0.0002648127846346922
[INFO] postSolveP: 79.108 [ms]
smoothSolver:  Solving for nuTilda, Initial residual = 0.02675937685599858, Final residual = 0.001590378824481836, No Iterations 3
[INFO] TimeStep: 5803.317 [ms]
ExecutionTime = 243.15 s  ClockTime = 244 s

Time = 31

velocityDampingConstraint velocityDamping damped 0 (0%) of cells, with max limit 300
[INFO] MatrixAssemblyU: 1664.446 [ms]
smoothSolver:  Solving for Ux, Initial residual = 0.01081665478085668, Final residual = 0.001053348984235492, No Iterations 12
smoothSolver:  Solving for Uy, Initial residual = 0.05185895167622318, Final residual = 0.005159804228114659, No Iterations 12
smoothSolver:  Solving for Uz, Initial residual = 0.0483141100864994, Final residual = 0.004569113896791814, No Iterations 12
[INFO] MomentumPredictor: 1476.841 [ms]
[INFO] MatrixAssemblyPI: 328.548 [ms]
[INFO] MatrixAssemblyPII: 156.189 [ms]
GAMG:  Solving for p, Initial residual = 0.04600508669033602, Final residual = 0.0002704973010168349, No Iterations 6
[INFO] SolveP: 969.54 [ms]
time step continuity errors : sum local = 0.002560340874336252, global = 3.856319503739185e-05, cumulative = 0.0003033759796720841
[INFO] postSolveP: 78.298 [ms]
smoothSolver:  Solving for nuTilda, Initial residual = 0.01706843327500804, Final residual = 0.001589924612048711, No Iterations 3
[INFO] TimeStep: 5774.324 [ms]
ExecutionTime = 250.18 s  ClockTime = 251 s

Time = 32

velocityDampingConstraint velocityDamping damped 0 (0%) of cells, with max limit 300
[INFO] MatrixAssemblyU: 1665.26 [ms]
smoothSolver:  Solving for Ux, Initial residual = 0.01094673515456911, Final residual = 0.001060348150020679, No Iterations 12
smoothSolver:  Solving for Uy, Initial residual = 0.05427936641484787, Final residual = 0.00539558046552095, No Iterations 12
smoothSolver:  Solving for Uz, Initial residual = 0.04987498493899112, Final residual = 0.004771179425860254, No Iterations 12
[INFO] MomentumPredictor: 1471.752 [ms]
[INFO] MatrixAssemblyPI: 328.483 [ms]
[INFO] MatrixAssemblyPII: 155.551 [ms]
GAMG:  Solving for p, Initial residual = 0.04759749553862494, Final residual = 0.0002762590303674192, No Iterations 6
[INFO] SolveP: 966.726 [ms]
time step continuity errors : sum local = 0.002640954523426254, global = 3.057610749095402e-05, cumulative = 0.0003339520871630381
[INFO] postSolveP: 79.477 [ms]
smoothSolver:  Solving for nuTilda, Initial residual = 0.02485423097121998, Final residual = 0.001488317645369914, No Iterations 3
[INFO] TimeStep: 5766.316 [ms]
ExecutionTime = 257.2 s  ClockTime = 258 s

Time = 33

velocityDampingConstraint velocityDamping damped 0 (0%) of cells, with max limit 300
[INFO] MatrixAssemblyU: 1664.921 [ms]
smoothSolver:  Solving for Ux, Initial residual = 0.01090690691525134, Final residual = 0.001066691661477804, No Iterations 12
smoothSolver:  Solving for Uy, Initial residual = 0.05661732985712375, Final residual = 0.005623804016763031, No Iterations 12
smoothSolver:  Solving for Uz, Initial residual = 0.05204354920885503, Final residual = 0.00504656416979345, No Iterations 12
[INFO] MomentumPredictor: 1471.025 [ms]
[INFO] MatrixAssemblyPI: 328.586 [ms]
[INFO] MatrixAssemblyPII: 155.631 [ms]
GAMG:  Solving for p, Initial residual = 0.04959494284341393, Final residual = 0.0002880936591637923, No Iterations 6
[INFO] SolveP: 969.634 [ms]
time step continuity errors : sum local = 0.002778455210034317, global = 3.047424653672183e-05, cumulative = 0.0003644263336997599
[INFO] postSolveP: 79.01000000000001 [ms]
smoothSolver:  Solving for nuTilda, Initial residual = 0.01598465202901619, Final residual = 0.001480751242699127, No Iterations 3
[INFO] TimeStep: 5766.006 [ms]
ExecutionTime = 264.22 s  ClockTime = 265 s

Time = 34

velocityDampingConstraint velocityDamping damped 0 (0%) of cells, with max limit 300
[INFO] MatrixAssemblyU: 1663.986 [ms]
smoothSolver:  Solving for Ux, Initial residual = 0.01103253741308887, Final residual = 0.001076922202654998, No Iterations 12
smoothSolver:  Solving for Uy, Initial residual = 0.05916563107250291, Final residual = 0.005875220464893373, No Iterations 12
smoothSolver:  Solving for Uz, Initial residual = 0.0545444654824094, Final residual = 0.005340903611503879, No Iterations 12
[INFO] MomentumPredictor: 1476.015 [ms]
[INFO] MatrixAssemblyPI: 327.798 [ms]
[INFO] MatrixAssemblyPII: 154.286 [ms]
GAMG:  Solving for p, Initial residual = 0.05178591722505981, Final residual = 0.0005124631797976804, No Iterations 5
[INFO] SolveP: 820.487 [ms]
time step continuity errors : sum local = 0.004983369242604177, global = 3.760837820959658e-05, cumulative = 0.0004020347119093565
[INFO] postSolveP: 79.282 [ms]
smoothSolver:  Solving for nuTilda, Initial residual = 0.02321201116522381, Final residual = 0.001394340862399252, No Iterations 3
[INFO] TimeStep: 5620.551 [ms]
ExecutionTime = 271.09 s  ClockTime = 272 s

Time = 35

velocityDampingConstraint velocityDamping damped 0 (0%) of cells, with max limit 300
[INFO] MatrixAssemblyU: 1662.684 [ms]
smoothSolver:  Solving for Ux, Initial residual = 0.01110012114503534, Final residual = 0.001090066742725671, No Iterations 12
smoothSolver:  Solving for Uy, Initial residual = 0.06167754734271708, Final residual = 0.006164130417589141, No Iterations 12
smoothSolver:  Solving for Uz, Initial residual = 0.05707915507399366, Final residual = 0.005606374483652398, No Iterations 12
[INFO] MomentumPredictor: 1471.955 [ms]
[INFO] MatrixAssemblyPI: 328.562 [ms]
[INFO] MatrixAssemblyPII: 155.399 [ms]
GAMG:  Solving for p, Initial residual = 0.05363683838695434, Final residual = 0.000522371155679733, No Iterations 5
[INFO] SolveP: 823.776 [ms]
time step continuity errors : sum local = 0.005126586771756631, global = 4.112878521052911e-05, cumulative = 0.0004431634971198856
[INFO] postSolveP: 78.63800000000001 [ms]
smoothSolver:  Solving for nuTilda, Initial residual = 0.01502069671057047, Final residual = 0.001383040175689065, No Iterations 3
[INFO] TimeStep: 5619.672 [ms]
ExecutionTime = 277.97 s  ClockTime = 279 s

Time = 36

velocityDampingConstraint velocityDamping damped 0 (0%) of cells, with max limit 300
[INFO] MatrixAssemblyU: 1661.783 [ms]
smoothSolver:  Solving for Ux, Initial residual = 0.01137615534921469, Final residual = 0.001111283195201905, No Iterations 12
smoothSolver:  Solving for Uy, Initial residual = 0.06391859612738404, Final residual = 0.005529979145835326, No Iterations 13
smoothSolver:  Solving for Uz, Initial residual = 0.05971738961899994, Final residual = 0.005861016538609421, No Iterations 12
[INFO] MomentumPredictor: 1506.941 [ms]
[INFO] MatrixAssemblyPI: 327.958 [ms]
[INFO] MatrixAssemblyPII: 155.438 [ms]
GAMG:  Solving for p, Initial residual = 0.0551430548295719, Final residual = 0.0004866702403163925, No Iterations 5
[INFO] SolveP: 818.352 [ms]
time step continuity errors : sum local = 0.004808921474148793, global = 4.051758937626837e-05, cumulative = 0.000483681086496154
[INFO] postSolveP: 79.93300000000001 [ms]
smoothSolver:  Solving for nuTilda, Initial residual = 0.02179502303985506, Final residual = 0.001308167038822586, No Iterations 3
[INFO] TimeStep: 5647.074 [ms]
ExecutionTime = 284.86 s  ClockTime = 286 s

Time = 37

velocityDampingConstraint velocityDamping damped 0 (0%) of cells, with max limit 300
[INFO] MatrixAssemblyU: 1660.564 [ms]
smoothSolver:  Solving for Ux, Initial residual = 0.01159352537221546, Final residual = 0.00113794339645977, No Iterations 12
smoothSolver:  Solving for Uy, Initial residual = 0.06563353427150992, Final residual = 0.005764595827682974, No Iterations 13
smoothSolver:  Solving for Uz, Initial residual = 0.06236581781798021, Final residual = 0.006092954319933077, No Iterations 12
[INFO] MomentumPredictor: 1505.247 [ms]
[INFO] MatrixAssemblyPI: 328.627 [ms]
[INFO] MatrixAssemblyPII: 155.869 [ms]
GAMG:  Solving for p, Initial residual = 0.05692372559386873, Final residual = 0.0004739018403205613, No Iterations 5
[INFO] SolveP: 822.228 [ms]
time step continuity errors : sum local = 0.004716397013596816, global = 3.484995168684504e-05, cumulative = 0.000518531038182999
[INFO] postSolveP: 78.812 [ms]
smoothSolver:  Solving for nuTilda, Initial residual = 0.01419703735647559, Final residual = 0.001295904561508911, No Iterations 3
[INFO] TimeStep: 5647.522 [ms]
ExecutionTime = 291.76 s  ClockTime = 293 s

Time = 38

velocityDampingConstraint velocityDamping damped 0 (0%) of cells, with max limit 300
[INFO] MatrixAssemblyU: 1660.755 [ms]
smoothSolver:  Solving for Ux, Initial residual = 0.01190907159923529, Final residual = 0.0011610466943371, No Iterations 12
smoothSolver:  Solving for Uy, Initial residual = 0.06709332540335454, Final residual = 0.005943350391804983, No Iterations 13
smoothSolver:  Solving for Uz, Initial residual = 0.06513302797348125, Final residual = 0.006293781881078779, No Iterations 12
[INFO] MomentumPredictor: 1500.401 [ms]
[INFO] MatrixAssemblyPI: 327.542 [ms]
[INFO] MatrixAssemblyPII: 153.397 [ms]
GAMG:  Solving for p, Initial residual = 0.05770860594077932, Final residual = 0.0004879508042970736, No Iterations 5
[INFO] SolveP: 819.736 [ms]
time step continuity errors : sum local = 0.004884373277709212, global = 2.088031909357579e-05, cumulative = 0.0005394113572765748
[INFO] postSolveP: 78.694 [ms]
smoothSolver:  Solving for nuTilda, Initial residual = 0.02056563742188908, Final residual = 0.001232373594007617, No Iterations 3
[INFO] TimeStep: 5639.549 [ms]
ExecutionTime = 298.65 s  ClockTime = 300 s

Time = 39

velocityDampingConstraint velocityDamping damped 0 (0%) of cells, with max limit 300
[INFO] MatrixAssemblyU: 1658.953 [ms]
smoothSolver:  Solving for Ux, Initial residual = 0.01200086433018741, Final residual = 0.001173800827790973, No Iterations 12
smoothSolver:  Solving for Uy, Initial residual = 0.06854368164335635, Final residual = 0.006105199003895908, No Iterations 13
smoothSolver:  Solving for Uz, Initial residual = 0.06760887727352459, Final residual = 0.00651160892486493, No Iterations 12
[INFO] MomentumPredictor: 1511.672 [ms]
[INFO] MatrixAssemblyPI: 328.45 [ms]
[INFO] MatrixAssemblyPII: 154.796 [ms]
GAMG:  Solving for p, Initial residual = 0.05792100480368607, Final residual = 0.0005143587229519571, No Iterations 5
[INFO] SolveP: 820.655 [ms]
time step continuity errors : sum local = 0.005168606316718101, global = 1.196257715222447e-05, cumulative = 0.0005513739344287993
[INFO] postSolveP: 79.063 [ms]
smoothSolver:  Solving for nuTilda, Initial residual = 0.01353056199072488, Final residual = 0.00122179849841549, No Iterations 3
[INFO] TimeStep: 5651.565 [ms]
ExecutionTime = 305.55 s  ClockTime = 307 s

Time = 40

velocityDampingConstraint velocityDamping damped 0 (0%) of cells, with max limit 300
[INFO] MatrixAssemblyU: 1660.393 [ms]
smoothSolver:  Solving for Ux, Initial residual = 0.01213492788425027, Final residual = 0.001183664500135069, No Iterations 12
smoothSolver:  Solving for Uy, Initial residual = 0.06961951754150372, Final residual = 0.006257193265047883, No Iterations 13
smoothSolver:  Solving for Uz, Initial residual = 0.06932660425556229, Final residual = 0.006739082720543383, No Iterations 12
[INFO] MomentumPredictor: 1501.335 [ms]
[INFO] MatrixAssemblyPI: 327.878 [ms]
[INFO] MatrixAssemblyPII: 156.042 [ms]
GAMG:  Solving for p, Initial residual = 0.05806296269951208, Final residual = 0.0005245888551532408, No Iterations 5
[INFO] SolveP: 818.4930000000001 [ms]
time step continuity errors : sum local = 0.005276023814394907, global = 1.712926353400906e-06, cumulative = 0.0005530868607822002
[INFO] postSolveP: 79.242 [ms]
smoothSolver:  Solving for nuTilda, Initial residual = 0.01946100762025025, Final residual = 0.001168338062053288, No Iterations 3
[INFO] TimeStep: 5637.44 [ms]
ExecutionTime = 312.45 s  ClockTime = 314 s

Time = 41

velocityDampingConstraint velocityDamping damped 0 (0%) of cells, with max limit 300
[INFO] MatrixAssemblyU: 1660.681 [ms]
smoothSolver:  Solving for Ux, Initial residual = 0.0120571416253694, Final residual = 0.001192019559811133, No Iterations 12
smoothSolver:  Solving for Uy, Initial residual = 0.07015089800457673, Final residual = 0.006400984973327073, No Iterations 13
smoothSolver:  Solving for Uz, Initial residual = 0.0703807401624357, Final residual = 0.006927310747656681, No Iterations 12
[INFO] MomentumPredictor: 1505.97 [ms]
[INFO] MatrixAssemblyPI: 328.054 [ms]
[INFO] MatrixAssemblyPII: 154.175 [ms]
GAMG:  Solving for p, Initial residual = 0.0575076873951204, Final residual = 0.0004874450127450421, No Iterations 5
[INFO] SolveP: 821.491 [ms]
time step continuity errors : sum local = 0.004903110063495816, global = -2.50424317860389e-06, cumulative = 0.0005505826176035964
[INFO] postSolveP: 78.45 [ms]
smoothSolver:  Solving for nuTilda, Initial residual = 0.01294433341408497, Final residual = 0.001159600342514272, No Iterations 3
[INFO] TimeStep: 5647.149 [ms]
ExecutionTime = 319.34 s  ClockTime = 321 s

Time = 42

velocityDampingConstraint velocityDamping damped 0 (0%) of cells, with max limit 300
[INFO] MatrixAssemblyU: 1659.729 [ms]
smoothSolver:  Solving for Ux, Initial residual = 0.01209849596751746, Final residual = 0.001198860870128585, No Iterations 12
smoothSolver:  Solving for Uy, Initial residual = 0.07062241720225733, Final residual = 0.006583485733190252, No Iterations 13
smoothSolver:  Solving for Uz, Initial residual = 0.07091193189712336, Final residual = 0.006031621782745617, No Iterations 13
[INFO] MomentumPredictor: 1538.017 [ms]
[INFO] MatrixAssemblyPI: 328.447 [ms]
[INFO] MatrixAssemblyPII: 155.633 [ms]
GAMG:  Solving for p, Initial residual = 0.05712956764219241, Final residual = 0.0004608431478776457, No Iterations 5
[INFO] SolveP: 821.498 [ms]
time step continuity errors : sum local = 0.004626682789492652, global = -9.994571252533112e-06, cumulative = 0.0005405880463510632
[INFO] postSolveP: 79.10599999999999 [ms]
smoothSolver:  Solving for nuTilda, Initial residual = 0.01845146714449361, Final residual = 0.001113044112641, No Iterations 3
[INFO] TimeStep: 5677.6 [ms]
ExecutionTime = 326.27 s  ClockTime = 328 s

Time = 43

velocityDampingConstraint velocityDamping damped 0 (0%) of cells, with max limit 300
[INFO] MatrixAssemblyU: 1660.172 [ms]
smoothSolver:  Solving for Ux, Initial residual = 0.0120071158667095, Final residual = 0.001026951457490209, No Iterations 13
smoothSolver:  Solving for Uy, Initial residual = 0.07135759460548712, Final residual = 0.006800765624842567, No Iterations 13
smoothSolver:  Solving for Uz, Initial residual = 0.07059873125915202, Final residual = 0.006122588671477569, No Iterations 13
[INFO] MomentumPredictor: 1572.946 [ms]
[INFO] MatrixAssemblyPI: 327.787 [ms]
[INFO] MatrixAssemblyPII: 153.477 [ms]
GAMG:  Solving for p, Initial residual = 0.05646763688051254, Final residual = 0.0004657806839112916, No Iterations 5
[INFO] SolveP: 820.1609999999999 [ms]
time step continuity errors : sum local = 0.004655182135098518, global = -1.555218944407778e-05, cumulative = 0.0005250358569069854
[INFO] postSolveP: 79.291 [ms]
smoothSolver:  Solving for nuTilda, Initial residual = 0.01236103555852217, Final residual = 0.001103477956214602, No Iterations 3
[INFO] TimeStep: 5711.56 [ms]
ExecutionTime = 333.23 s  ClockTime = 335 s

Time = 44

velocityDampingConstraint velocityDamping damped 0 (0%) of cells, with max limit 300
[INFO] MatrixAssemblyU: 1657.992 [ms]
smoothSolver:  Solving for Ux, Initial residual = 0.0120256173469339, Final residual = 0.001035113347509879, No Iterations 13
smoothSolver:  Solving for Uy, Initial residual = 0.07182369813718779, Final residual = 0.007001530877733824, No Iterations 13
smoothSolver:  Solving for Uz, Initial residual = 0.0700548081413622, Final residual = 0.006205460424656637, No Iterations 13
[INFO] MomentumPredictor: 1572.296 [ms]
[INFO] MatrixAssemblyPI: 328.167 [ms]
[INFO] MatrixAssemblyPII: 152.949 [ms]
GAMG:  Solving for p, Initial residual = 0.05597444657239111, Final residual = 0.0004762026413906304, No Iterations 5
[INFO] SolveP: 820.77 [ms]
time step continuity errors : sum local = 0.00471397771913696, global = -1.662778667898911e-05, cumulative = 0.0005084080702279964
[INFO] postSolveP: 79.054 [ms]
smoothSolver:  Solving for nuTilda, Initial residual = 0.01751106023308946, Final residual = 0.001061043053399878, No Iterations 3
[INFO] TimeStep: 5710.729 [ms]
ExecutionTime = 340.19 s  ClockTime = 342 s

Time = 45

velocityDampingConstraint velocityDamping damped 0 (0%) of cells, with max limit 300
[INFO] MatrixAssemblyU: 1659.289 [ms]
smoothSolver:  Solving for Ux, Initial residual = 0.01189344276581169, Final residual = 0.001043337407542942, No Iterations 13
smoothSolver:  Solving for Uy, Initial residual = 0.07194823598377924, Final residual = 0.007129399451626275, No Iterations 13
smoothSolver:  Solving for Uz, Initial residual = 0.06928400529775273, Final residual = 0.006273537542065709, No Iterations 13
[INFO] MomentumPredictor: 1574.186 [ms]
[INFO] MatrixAssemblyPI: 328.157 [ms]
[INFO] MatrixAssemblyPII: 153.892 [ms]
GAMG:  Solving for p, Initial residual = 0.0555827290641242, Final residual = 0.0004842957710318729, No Iterations 5
[INFO] SolveP: 820.752 [ms]
time step continuity errors : sum local = 0.004727335143738667, global = -4.294235161519767e-06, cumulative = 0.0005041138350664766
[INFO] postSolveP: 78.959 [ms]
smoothSolver:  Solving for nuTilda, Initial residual = 0.01180150545010078, Final residual = 0.001049833508212601, No Iterations 3
[INFO] TimeStep: 5711.913 [ms]
ExecutionTime = 347.14 s  ClockTime = 349 s

Time = 46

velocityDampingConstraint velocityDamping damped 0 (0%) of cells, with max limit 300
[INFO] MatrixAssemblyU: 1659.137 [ms]
smoothSolver:  Solving for Ux, Initial residual = 0.01176947714225021, Final residual = 0.001047378792425299, No Iterations 13
smoothSolver:  Solving for Uy, Initial residual = 0.07195159881269868, Final residual = 0.006149480133780682, No Iterations 14
smoothSolver:  Solving for Uz, Initial residual = 0.06806694163162993, Final residual = 0.006329859596348348, No Iterations 13
[INFO] MomentumPredictor: 1606.889 [ms]
[INFO] MatrixAssemblyPI: 328.484 [ms]
[INFO] MatrixAssemblyPII: 154.707 [ms]
GAMG:  Solving for p, Initial residual = 0.0549584575959824, Final residual = 0.0004726627617820453, No Iterations 5
[INFO] SolveP: 820.902 [ms]
time step continuity errors : sum local = 0.004565807366562805, global = 1.313273786220568e-05, cumulative = 0.0005172465729286823
[INFO] postSolveP: 79.414 [ms]
smoothSolver:  Solving for nuTilda, Initial residual = 0.01662774810991029, Final residual = 0.001011909556851985, No Iterations 3
[INFO] TimeStep: 5744.06 [ms]
ExecutionTime = 354.13 s  ClockTime = 356 s

Time = 47

velocityDampingConstraint velocityDamping damped 0 (0%) of cells, with max limit 300
[INFO] MatrixAssemblyU: 1657.814 [ms]
smoothSolver:  Solving for Ux, Initial residual = 0.01153130637496911, Final residual = 0.001052663314391353, No Iterations 13
smoothSolver:  Solving for Uy, Initial residual = 0.07166649966368752, Final residual = 0.006153923908298328, No Iterations 14
smoothSolver:  Solving for Uz, Initial residual = 0.06676155820776815, Final residual = 0.006374018014413011, No Iterations 13
[INFO] MomentumPredictor: 1601.962 [ms]
[INFO] MatrixAssemblyPI: 328.167 [ms]
[INFO] MatrixAssemblyPII: 152.274 [ms]
GAMG:  Solving for p, Initial residual = 0.05425463751363414, Final residual = 0.0004632123464331657, No Iterations 5
[INFO] SolveP: 822.855 [ms]
time step continuity errors : sum local = 0.004445266870465018, global = 3.263504914691495e-05, cumulative = 0.0005498816220755973
[INFO] postSolveP: 78.65600000000001 [ms]
smoothSolver:  Solving for nuTilda, Initial residual = 0.01127664885911601, Final residual = 0.001001969173284983, No Iterations 3
[INFO] TimeStep: 5741.668 [ms]
ExecutionTime = 361.12 s  ClockTime = 363 s

Time = 48

velocityDampingConstraint velocityDamping damped 0 (0%) of cells, with max limit 300
[INFO] MatrixAssemblyU: 1656.452 [ms]
smoothSolver:  Solving for Ux, Initial residual = 0.01149106398505808, Final residual = 0.001058208780525403, No Iterations 13
smoothSolver:  Solving for Uy, Initial residual = 0.07135163213213072, Final residual = 0.006149056933812521, No Iterations 14
smoothSolver:  Solving for Uz, Initial residual = 0.0655878318215604, Final residual = 0.00636531160210649, No Iterations 13
[INFO] MomentumPredictor: 1597.141 [ms]
[INFO] MatrixAssemblyPI: 328.257 [ms]
[INFO] MatrixAssemblyPII: 154.848 [ms]
GAMG:  Solving for p, Initial residual = 0.0533878767804217, Final residual = 0.0004611851375841125, No Iterations 5
[INFO] SolveP: 820.492 [ms]
time step continuity errors : sum local = 0.004394375280387224, global = 3.462425170223098e-05, cumulative = 0.0005845058737778283
[INFO] postSolveP: 78.91500000000001 [ms]
smoothSolver:  Solving for nuTilda, Initial residual = 0.01584059809635916, Final residual = 0.0009705068858118989, No Iterations 3
[INFO] TimeStep: 5731.048 [ms]
ExecutionTime = 368.1 s  ClockTime = 370 s

Time = 49

velocityDampingConstraint velocityDamping damped 0 (0%) of cells, with max limit 300
[INFO] MatrixAssemblyU: 1665.346 [ms]
smoothSolver:  Solving for Ux, Initial residual = 0.01138569651169507, Final residual = 0.001062324507804811, No Iterations 13
smoothSolver:  Solving for Uy, Initial residual = 0.07074247469697427, Final residual = 0.006126197199465309, No Iterations 14
smoothSolver:  Solving for Uz, Initial residual = 0.06455709337145171, Final residual = 0.006337932666496322, No Iterations 13
[INFO] MomentumPredictor: 1603.266 [ms]
[INFO] MatrixAssemblyPI: 329.15 [ms]
[INFO] MatrixAssemblyPII: 154.942 [ms]
GAMG:  Solving for p, Initial residual = 0.05273192109945187, Final residual = 0.0004718195078063507, No Iterations 5
[INFO] SolveP: 823.1900000000001 [ms]
time step continuity errors : sum local = 0.004468228343387634, global = 2.43569511511313e-05, cumulative = 0.0006088628249289596
[INFO] postSolveP: 78.706 [ms]
smoothSolver:  Solving for nuTilda, Initial residual = 0.01083771804974885, Final residual = 0.0009640317926776874, No Iterations 3
[INFO] TimeStep: 5748.022 [ms]
ExecutionTime = 375.09 s  ClockTime = 377 s

Time = 50

velocityDampingConstraint velocityDamping damped 0 (0%) of cells, with max limit 300
[INFO] MatrixAssemblyU: 1657.067 [ms]
smoothSolver:  Solving for Ux, Initial residual = 0.01138761945731992, Final residual = 0.001063983834987591, No Iterations 13
smoothSolver:  Solving for Uy, Initial residual = 0.06980280415684471, Final residual = 0.006059419815942389, No Iterations 14
smoothSolver:  Solving for Uz, Initial residual = 0.06359454401171843, Final residual = 0.0062979722214328, No Iterations 13
[INFO] MomentumPredictor: 1602.478 [ms]
[INFO] MatrixAssemblyPI: 327.841 [ms]
[INFO] MatrixAssemblyPII: 154.678 [ms]
GAMG:  Solving for p, Initial residual = 0.05249283793164629, Final residual = 0.0004813010529313222, No Iterations 5
[INFO] SolveP: 820.481 [ms]
time step continuity errors : sum local = 0.0045245471275934, global = 8.290472431025824e-06, cumulative = 0.0006171532973599854
[INFO] postSolveP: 79.37 [ms]
smoothSolver:  Solving for nuTilda, Initial residual = 0.01515776375677461, Final residual = 0.000938196733931624, No Iterations 3
[INFO] TimeStep: 5740.342 [ms]
ExecutionTime = 382.08 s  ClockTime = 384 s

End

Finalising parallel run
