/*---------------------------------------------------------------------------*\
| =========                 |                                                 |
| \\      /  F ield         | OpenFOAM: The Open Source CFD Toolbox           |
|  \\    /   O peration     | Version:  2306                                  |
|   \\  /    A nd           | Website:  www.openfoam.com                      |
|    \\/     M anipulation  |                                                 |
\*---------------------------------------------------------------------------*/
Build  : a6e826bd55-20230630 OPENFOAM=2306 version=v2306
Arch   : "LSB;label=32;scalar=64"
Exec   : pimpleFoam -parallel -case /home/greole/data/code/exasim_project/micro_benchmarks/WindsorBody/workspace/d128333103178047555ef0bbe9a0d7ad/case
Date   : Aug 30 2023
Time   : 21:22:44
Host   : nla-gpu2.ianm.kit.edu
PID    : 87064
I/O    : uncollated
Case   : /home/greole/data/code/exasim_project/micro_benchmarks/WindsorBody/workspace/d128333103178047555ef0bbe9a0d7ad/case
nProcs : 32
Hosts  :
(
    (nla-gpu2.ianm.kit.edu 32)
)
Pstream initialized with:
    floatTransfer      : false
    nProcsSimpleSum    : 0
    nonBlockingExchange: 0 (tuning: 0)
    exchange algorithm : -1
    commsType          : nonBlocking
    polling iterations : 0
trapFpe: Floating point exception trapping enabled (FOAM_SIGFPE).
fileModificationChecking : Monitoring run-time modified files using timeStampMaster (fileModificationSkew 5, maxFileModificationPolls 20)
allowSystemOperations : Allowing user-supplied system call operations

// * * * * * * * * * * * * * * * * * * * * * * * * * * * * * * * * * * * * * //
Create time

--> FOAM Warning : 
    From void* Foam::dlLibraryTable::openLibrary(const Foam::fileName&, bool)
    in file db/dynamicLibrary/dlLibraryTable/dlLibraryTable.C at line 188
    Could not load "libpetscFoam.so"
libpetscFoam.so: cannot open shared object file: No such file or directory
Create mesh for time = 0


PIMPLE: max iterations = 30
    field p	: relTol 0.1, tolerance 0
    field U	: relTol 0.001, tolerance 0

Reading field p

Reading field U

Reading/calculating face flux field phi

Selecting incompressible transport model Newtonian
Selecting turbulence model type LES
Selecting LES turbulence model kOmegaSSTDDES
Selecting LES delta type maxDeltaxyz
Selecting patchDistMethod meshWave
LES
{
    LESModel        kOmegaSSTDDES;
    delta           maxDeltaxyz;
    turbulence      on;
    printCoeffs     on;
    alphaK1         0.85;
    alphaK2         1;
    alphaOmega1     0.5;
    alphaOmega2     0.856;
    gamma1          0.5555555555555556;
    gamma2          0.44;
    beta1           0.075;
    beta2           0.0828;
    betaStar        0.09;
    a1              0.31;
    b1              1;
    c1              10;
    F3              false;
    decayControl    false;
    kInf            0;
    omegaInf        0;
    useSigma        false;
    kappa           0.41;
    CDESkom         0.82;
    CDESkeps        0.6;
    Ctrans          60;
    Cd1             20;
    Cd2             3;
}

No MRF models present

Creating finite volume options from "system/fvOptions"

Selecting finite volume options type velocityDampingConstraint
    Source: velocityDamping
    - selecting all cells
    - selected 25228544 cell(s) with volume 111.3033220642923
Courant Number mean: 0.00426084852695275 max: 6.125474307821542

Starting time loop

--> FOAM Warning : 
    From bool Foam::functionObjectList::read()
    in file db/functionObjects/functionObjectList/functionObjectList.C at line 1035
    Reading "system/controlDict" at line 2 to 19
    Entry 'lref' is not a dictionary
--> FOAM Warning : 
    From bool Foam::functionObjectList::read()
    in file db/functionObjects/functionObjectList/functionObjectList.C at line 1035
    Reading "system/controlDict" at line 2 to 19
    Entry 'Aref' is not a dictionary
--> FOAM Warning : 
    From bool Foam::functionObjectList::read()
    in file db/functionObjects/functionObjectList/functionObjectList.C at line 1035
    Reading "system/controlDict" at line 2 to 19
    Entry 'yawAngle' is not a dictionary
--> FOAM Warning : 
    From bool Foam::functionObjectList::read()
    in file db/functionObjects/functionObjectList/functionObjectList.C at line 1035
    Reading "system/controlDict" at line 2 to 19
    Entry 'lDomain' is not a dictionary
--> FOAM Warning : 
    From bool Foam::functionObjectList::read()
    in file db/functionObjects/functionObjectList/functionObjectList.C at line 1035
    Reading "system/controlDict" at line 2 to 19
    Entry 'bDomain' is not a dictionary
--> FOAM Warning : 
    From bool Foam::functionObjectList::read()
    in file db/functionObjects/functionObjectList/functionObjectList.C at line 1035
    Reading "system/controlDict" at line 2 to 19
    Entry 'hDomain' is not a dictionary
--> FOAM Warning : 
    From bool Foam::functionObjectList::read()
    in file db/functionObjects/functionObjectList/functionObjectList.C at line 1035
    Reading "system/controlDict" at line 2 to 19
    Entry 'xCenter' is not a dictionary
--> FOAM Warning : 
    From bool Foam::functionObjectList::read()
    in file db/functionObjects/functionObjectList/functionObjectList.C at line 1035
    Reading "system/controlDict" at line 2 to 19
    Entry 'yCenter' is not a dictionary
--> FOAM Warning : 
    From bool Foam::functionObjectList::read()
    in file db/functionObjects/functionObjectList/functionObjectList.C at line 1035
    Reading "system/controlDict" at line 2 to 19
    Entry 'zCenter' is not a dictionary
--> FOAM Warning : 
    From bool Foam::functionObjectList::read()
    in file db/functionObjects/functionObjectList/functionObjectList.C at line 1035
    Reading "system/controlDict" at line 2 to 19
    Entry 'inletPatch' is not a dictionary
--> FOAM Warning : 
    From bool Foam::functionObjectList::read()
    in file db/functionObjects/functionObjectList/functionObjectList.C at line 1035
    Reading "system/controlDict" at line 2 to 19
    Entry 'outletPatch' is not a dictionary
--> FOAM Warning : 
    From bool Foam::functionObjectList::read()
    in file db/functionObjects/functionObjectList/functionObjectList.C at line 1035
    Reading "system/controlDict" at line 2 to 19
    Entry 'wallPatches' is not a dictionary
--> FOAM Warning : 
    From bool Foam::functionObjectList::read()
    in file db/functionObjects/functionObjectList/functionObjectList.C at line 1035
    Reading "system/controlDict" at line 2 to 19
    Entry 'forcesWallPatches' is not a dictionary
--> FOAM Warning : 
    From bool Foam::functionObjectList::read()
    in file db/functionObjects/functionObjectList/functionObjectList.C at line 1035
    Reading "system/controlDict" at line 2 to 19
    Entry 'symmPatches' is not a dictionary
--> FOAM Warning : 
    From bool Foam::functionObjectList::read()
    in file db/functionObjects/functionObjectList/functionObjectList.C at line 1035
    Reading "system/controlDict" at line 2 to 19
    Entry 'Uinf' is not a dictionary
--> FOAM Warning : 
    From bool Foam::functionObjectList::read()
    in file db/functionObjects/functionObjectList/functionObjectList.C at line 1035
    Reading "system/controlDict" at line 2 to 19
    Entry 'UinfMag' is not a dictionary
--> FOAM Warning : 
    From bool Foam::functionObjectList::read()
    in file db/functionObjects/functionObjectList/functionObjectList.C at line 1035
    Reading "system/controlDict" at line 2 to 19
    Entry 'nu' is not a dictionary
--> FOAM Warning : 
    From bool Foam::functionObjectList::read()
    in file db/functionObjects/functionObjectList/functionObjectList.C at line 1035
    Reading "system/controlDict" at line 2 to 19
    Entry 'pref' is not a dictionary
--> FOAM Warning : 
    From bool Foam::functionObjectList::read()
    in file db/functionObjects/functionObjectList/functionObjectList.C at line 1035
    Reading "system/controlDict" at line 2 to 19
    Entry 'viscRatio' is not a dictionary
--> FOAM Warning : 
    From bool Foam::functionObjectList::read()
    in file db/functionObjects/functionObjectList/functionObjectList.C at line 1035
    Reading "system/controlDict" at line 2 to 19
    Entry 'Tu' is not a dictionary
--> FOAM Warning : 
    From bool Foam::functionObjectList::read()
    in file db/functionObjects/functionObjectList/functionObjectList.C at line 1035
    Reading "system/controlDict" at line 2 to 19
    Entry 'LESturbModel' is not a dictionary
--> FOAM Warning : 
    From bool Foam::functionObjectList::read()
    in file db/functionObjects/functionObjectList/functionObjectList.C at line 1035
    Reading "system/controlDict" at line 2 to 19
    Entry 'RASturbModel' is not a dictionary
--> FOAM Warning : 
    From bool Foam::functionObjectList::read()
    in file db/functionObjects/functionObjectList/functionObjectList.C at line 1035
    Reading "system/controlDict" at line 2 to 19
    Entry 'deltaTurb' is not a dictionary
--> FOAM Warning : 
    From bool Foam::functionObjectList::read()
    in file db/functionObjects/functionObjectList/functionObjectList.C at line 1035
    Reading "system/controlDict" at line 2 to 19
    Entry 'dt' is not a dictionary
--> FOAM Warning : 
    From bool Foam::functionObjectList::read()
    in file db/functionObjects/functionObjectList/functionObjectList.C at line 1035
    Reading "system/controlDict" at line 2 to 19
    Entry 'tAvg' is not a dictionary
--> FOAM Warning : 
    From bool Foam::functionObjectList::read()
    in file db/functionObjects/functionObjectList/functionObjectList.C at line 1035
    Reading "system/controlDict" at line 2 to 19
    Entry 'tEnd' is not a dictionary
--> FOAM Warning : 
    From bool Foam::functionObjectList::read()
    in file db/functionObjects/functionObjectList/functionObjectList.C at line 1035
    Reading "system/controlDict" at line 2 to 19
    Entry 'writeInterval_' is not a dictionary
--> FOAM Warning : 
    From bool Foam::functionObjectList::read()
    in file db/functionObjects/functionObjectList/functionObjectList.C at line 1035
    Reading "system/controlDict" at line 2 to 19
    Entry 'nCores' is not a dictionary
--> FOAM Warning : 
    From bool Foam::functionObjectList::read()
    in file db/functionObjects/functionObjectList/functionObjectList.C at line 1035
    Reading "system/controlDict" at line 2 to 19
    Entry 'interpScheme' is not a dictionary
--> FOAM Warning : 
    From bool Foam::functionObjectList::read()
    in file db/functionObjects/functionObjectList/functionObjectList.C at line 1035
    Reading "system/controlDict" at line 2 to 19
    Entry 'probeField' is not a dictionary
wallShearStress wallShearStress:
    processing wall patches: 
        Windsor_Body
        CFDWT_Floor
        Windsor_Pins
        Windsor_Base
        Windsor_Body_2
        CFDWT_Floor_2
        Windsor_Pins_2
        Windsor_Base_2
        Windsor_Body_3
        CFDWT_Floor_3
        Windsor_Pins_3
        Windsor_Base_3
        Windsor_Body_4
        CFDWT_Floor_4
        Windsor_Pins_4
        Windsor_Base_4

pressure calc_cp:
    Operating mode: staticCoeff
    Not including hydrostatic effects

forceCoeffs forceCoeffsAll:
    rho: rhoInf
    Freestream density (rhoInf) set to 1
    Not including porosity effects
    magUInf: 40
    lRef   : 0.6375
    Aref   : 0.1124
    rhoInf : 1
    Selecting all coefficients
    - Drag force: Cd
    - Drag force front: Cd(f)
    - Drag force rear: Cd(r)
    - Lift force: Cl
    - Lift force front: Cl(f)
    - Lift force rear: Cl(r)
    - Pitch moment: CmPitch
    - Roll moment: CmRoll
    - Yaw moment: CmYaw
    - Side force: Cs
    - Side force front: Cs(f)
    - Side force rear: Cs(r)


forceCoeffs dragCoeffBase:
    rho: rhoInf
    Freestream density (rhoInf) set to 1
    Not including porosity effects
    magUInf: 40
    lRef   : 0.6375
    Aref   : 0.1124
    rhoInf : 1
    Selecting coefficients:
    - Drag force: Cd


Courant Number mean: 0.00426084852695275 max: 6.125474307821542
Time = 5e-06

PIMPLE: iteration 1
velocityDampingConstraint velocityDamping damped 0 (0%) of cells, with max limit 300
[INFO] MatrixAssemblyU: 2984.316 [ms]
smoothSolver:  Solving for Ux, Initial residual = 0.9999999989864492, Final residual = 0.004513019609314054, No Iterations 1
smoothSolver:  Solving for Uy, Initial residual = 1, Final residual = 0.01636615161403721, No Iterations 1
smoothSolver:  Solving for Uz, Initial residual = 1, Final residual = 0.01391160832291675, No Iterations 1
[INFO] MomentumPredictor: 390.245 [ms]
[INFO] MatrixAssemblyPI: 328.727 [ms]
[INFO] MatrixAssemblyPII: 215.793 [ms]
GAMG:  Solving for p, Initial residual = 1, Final residual = 0.009687571759312471, No Iterations 23
[INFO] SolveP: 3981.268 [ms]
time step continuity errors : sum local = 1.739437873967634e-08, global = 2.56471956115851e-10, cumulative = 2.56471956115851e-10
[INFO] PIMPLEStep: 8024.558 [ms]
PIMPLE: iteration 2
velocityDampingConstraint velocityDamping damped 0 (0%) of cells, with max limit 300
[INFO] MatrixAssemblyU: 2902.634 [ms]
smoothSolver:  Solving for Ux, Initial residual = 0.08474250108137041, Final residual = 0.0004624302525159174, No Iterations 1
smoothSolver:  Solving for Uy, Initial residual = 0.1299778090108989, Final residual = 0.001005173548569689, No Iterations 1
smoothSolver:  Solving for Uz, Initial residual = 0.05520169487952206, Final residual = 0.0003194036349016704, No Iterations 1
[INFO] MomentumPredictor: 384.372 [ms]
[INFO] MatrixAssemblyPI: 301.472 [ms]
[INFO] MatrixAssemblyPII: 217.083 [ms]
GAMG:  Solving for p, Initial residual = 0.4439041784452645, Final residual = 0.003920705881581854, No Iterations 18
[INFO] SolveP: 2741.849 [ms]
time step continuity errors : sum local = 1.96621187187634e-08, global = 3.571649690078327e-10, cumulative = 6.136369251236837e-10
[INFO] PIMPLEStep: 6672.885 [ms]
PIMPLE: iteration 3
velocityDampingConstraint velocityDamping damped 0 (0%) of cells, with max limit 300
[INFO] MatrixAssemblyU: 2896.219 [ms]
smoothSolver:  Solving for Ux, Initial residual = 0.03812640515389983, Final residual = 0.0002091551428388452, No Iterations 1
smoothSolver:  Solving for Uy, Initial residual = 0.06056083317921304, Final residual = 0.0004716112823594039, No Iterations 1
smoothSolver:  Solving for Uz, Initial residual = 0.0246681591922451, Final residual = 0.0001429694496748461, No Iterations 1
[INFO] MomentumPredictor: 384.455 [ms]
[INFO] MatrixAssemblyPI: 302.317 [ms]
[INFO] MatrixAssemblyPII: 216.176 [ms]
GAMG:  Solving for p, Initial residual = 0.2730135703659663, Final residual = 0.002506724211865059, No Iterations 15
[INFO] SolveP: 2293.29 [ms]
time step continuity errors : sum local = 1.722990919615046e-08, global = 2.588574156568241e-10, cumulative = 8.724943407805078e-10
[INFO] PIMPLEStep: 6218.359 [ms]
PIMPLE: iteration 4
velocityDampingConstraint velocityDamping damped 0 (0%) of cells, with max limit 300
[INFO] MatrixAssemblyU: 2895.705 [ms]
smoothSolver:  Solving for Ux, Initial residual = 0.01768085984827644, Final residual = 9.635855677223024e-05, No Iterations 1
smoothSolver:  Solving for Uy, Initial residual = 0.0273976301828185, Final residual = 0.0002122716036390269, No Iterations 1
smoothSolver:  Solving for Uz, Initial residual = 0.01093747334853823, Final residual = 6.266594808019421e-05, No Iterations 1
[INFO] MomentumPredictor: 384.767 [ms]
[INFO] MatrixAssemblyPI: 302.057 [ms]
[INFO] MatrixAssemblyPII: 216.547 [ms]
GAMG:  Solving for p, Initial residual = 0.1656441790955386, Final residual = 0.001345586737590498, No Iterations 12
[INFO] SolveP: 1853.471 [ms]
time step continuity errors : sum local = 1.077798394778662e-08, global = 1.670088739578076e-10, cumulative = 1.039503214738316e-09
[INFO] PIMPLEStep: 5778.169 [ms]
PIMPLE: iteration 5
velocityDampingConstraint velocityDamping damped 0 (0%) of cells, with max limit 300
[INFO] MatrixAssemblyU: 2894.082 [ms]
smoothSolver:  Solving for Ux, Initial residual = 0.007512274108617082, Final residual = 4.018936655319384e-05, No Iterations 1
smoothSolver:  Solving for Uy, Initial residual = 0.01133313860192859, Final residual = 8.614827722169242e-05, No Iterations 1
smoothSolver:  Solving for Uz, Initial residual = 0.004511747563091045, Final residual = 2.520438183619368e-05, No Iterations 1
[INFO] MomentumPredictor: 384.347 [ms]
[INFO] MatrixAssemblyPI: 301.975 [ms]
[INFO] MatrixAssemblyPII: 216.819 [ms]
GAMG:  Solving for p, Initial residual = 0.09841674898323047, Final residual = 0.0008059841500066821, No Iterations 8
[INFO] SolveP: 1262.668 [ms]
time step continuity errors : sum local = 6.975323684743707e-09, global = 5.354109781070253e-12, cumulative = 1.044857324519386e-09
[INFO] PIMPLEStep: 5185.802 [ms]
PIMPLE: iteration 6
velocityDampingConstraint velocityDamping damped 0 (0%) of cells, with max limit 300
[INFO] MatrixAssemblyU: 2890.434 [ms]
smoothSolver:  Solving for Ux, Initial residual = 0.002785401032828033, Final residual = 1.440900742867969e-05, No Iterations 1
smoothSolver:  Solving for Uy, Initial residual = 0.004073445522818592, Final residual = 2.980956177863488e-05, No Iterations 1
smoothSolver:  Solving for Uz, Initial residual = 0.001637986309289277, Final residual = 8.74763922627017e-06, No Iterations 1
[INFO] MomentumPredictor: 385.321 [ms]
[INFO] MatrixAssemblyPI: 301.814 [ms]
[INFO] MatrixAssemblyPII: 216.442 [ms]
GAMG:  Solving for p, Initial residual = 0.05795286564446245, Final residual = 0.0004643420440104592, No Iterations 7
[INFO] SolveP: 1113.988 [ms]
time step continuity errors : sum local = 4.173082155138592e-09, global = 2.765452594531365e-11, cumulative = 1.072511850464699e-09
[INFO] PIMPLEStep: 5033.481 [ms]
PIMPLE: iteration 7
velocityDampingConstraint velocityDamping damped 0 (0%) of cells, with max limit 300
[INFO] MatrixAssemblyU: 2888.727 [ms]
smoothSolver:  Solving for Ux, Initial residual = 0.0008338169791000206, Final residual = 4.144551274821443e-06, No Iterations 1
smoothSolver:  Solving for Uy, Initial residual = 0.001186647396136438, Final residual = 8.152573828764476e-06, No Iterations 1
smoothSolver:  Solving for Uz, Initial residual = 0.0004905912239790855, Final residual = 2.466566385508265e-06, No Iterations 1
[INFO] MomentumPredictor: 385.222 [ms]
[INFO] MatrixAssemblyPI: 301.637 [ms]
[INFO] MatrixAssemblyPII: 215.472 [ms]
GAMG:  Solving for p, Initial residual = 0.03425785473125176, Final residual = 0.0003329853147600177, No Iterations 8
[INFO] SolveP: 1261.398 [ms]
time step continuity errors : sum local = 3.052689562750514e-09, global = 3.319034421369525e-11, cumulative = 1.105702194678395e-09
[INFO] PIMPLEStep: 5178.473 [ms]
PIMPLE: iteration 8
velocityDampingConstraint velocityDamping damped 0 (0%) of cells, with max limit 300
[INFO] MatrixAssemblyU: 2883.19 [ms]
smoothSolver:  Solving for Ux, Initial residual = 0.0001541574529005199, Final residual = 8.07718206146028e-07, No Iterations 1
smoothSolver:  Solving for Uy, Initial residual = 0.0002314926040371661, Final residual = 1.42684982417731e-06, No Iterations 1
smoothSolver:  Solving for Uz, Initial residual = 0.0001031533006719225, Final residual = 5.098491297374665e-07, No Iterations 1
[INFO] MomentumPredictor: 385.717 [ms]
[INFO] MatrixAssemblyPI: 302.552 [ms]
[INFO] MatrixAssemblyPII: 216.483 [ms]
GAMG:  Solving for p, Initial residual = 0.02058253587458577, Final residual = 0.0001760264771773918, No Iterations 10
[INFO] SolveP: 1557.113 [ms]
time step continuity errors : sum local = 1.631423686550158e-09, global = 1.874319190690013e-11, cumulative = 1.124445386585295e-09
[INFO] PIMPLEStep: 5470.904 [ms]
PIMPLE: iteration 9
velocityDampingConstraint velocityDamping damped 0 (0%) of cells, with max limit 300
[INFO] MatrixAssemblyU: 2882.7 [ms]
smoothSolver:  Solving for Ux, Initial residual = 5.677325738566772e-05, Final residual = 5.587579115784179e-07, No Iterations 1
smoothSolver:  Solving for Uy, Initial residual = 0.0001463366040072434, Final residual = 1.317325709688483e-06, No Iterations 1
smoothSolver:  Solving for Uz, Initial residual = 5.12266131185439e-05, Final residual = 4.003912121805253e-07, No Iterations 1
[INFO] MomentumPredictor: 385.018 [ms]
[INFO] MatrixAssemblyPI: 301.911 [ms]
[INFO] MatrixAssemblyPII: 216.651 [ms]
GAMG:  Solving for p, Initial residual = 0.01262499605695238, Final residual = 0.0001209713483413945, No Iterations 10
[INFO] SolveP: 1556.071 [ms]
time step continuity errors : sum local = 1.128100596123835e-09, global = 1.02716551570767e-11, cumulative = 1.134717041742371e-09
DILUPBiCGStab:  Solving for omega, Initial residual = 5.925534386081585e-05, Final residual = 2.574535912763516e-09, No Iterations 1
DILUPBiCGStab:  Solving for k, Initial residual = 0.9999996871945641, Final residual = 2.126780196699097e-07, No Iterations 1
[INFO] PIMPLEStep: 7934.489 [ms]
PIMPLE: converged in 9 iterations
[INFO] TimeStep: 55549.47 [ms]
ExecutionTime = 78.55 s  ClockTime = 79 s

--> FOAM Warning : 
    From virtual bool Foam::functionObjects::fieldSelection::checkSelection()
    in file functionObjects/fieldSelections/fieldSelection/fieldSelection.C at line 166
    Field nuTilda not found
--> FOAM Warning : 
    From virtual bool Foam::functionObjects::fieldSelection::checkSelection()
    in file functionObjects/fieldSelections/fieldSelection/fieldSelection.C at line 166
    Field gammaInt not found
--> FOAM Warning : 
    From virtual bool Foam::functionObjects::fieldSelection::checkSelection()
    in file functionObjects/fieldSelections/fieldSelection/fieldSelection.C at line 166
    Field ReThetat not found
--> FOAM Warning : 
    From virtual bool Foam::functionObjects::fieldSelection::checkSelection()
    in file functionObjects/fieldSelections/fieldSelection/fieldSelection.C at line 166
    Field epsilon not found
--> FOAM Warning : 
    From virtual bool Foam::functionObjects::solverFieldSelection::updateSelection()
    in file functionObjects/fieldSelections/solverFieldSelection/solverFieldSelection.C at line 85
    Valid solver fields are: 4(U k omega p)Courant Number mean: 0.004346674015830829 max: 11.3249269237196
Time = 1e-05

PIMPLE: iteration 1
velocityDampingConstraint velocityDamping damped 0 (0%) of cells, with max limit 300
[INFO] MatrixAssemblyU: 2907.847 [ms]
smoothSolver:  Solving for Ux, Initial residual = 0.1810197882216859, Final residual = 0.0006305332600383769, No Iterations 1
smoothSolver:  Solving for Uy, Initial residual = 0.2461383920306099, Final residual = 0.001230188564069685, No Iterations 1
smoothSolver:  Solving for Uz, Initial residual = 0.1158242736608309, Final residual = 0.0004273440257846885, No Iterations 1
[INFO] MomentumPredictor: 384.932 [ms]
[INFO] MatrixAssemblyPI: 316.44 [ms]
[INFO] MatrixAssemblyPII: 215.978 [ms]
GAMG:  Solving for p, Initial residual = 0.3100956678247068, Final residual = 0.002873595614331255, No Iterations 20
[INFO] SolveP: 3035.681 [ms]
time step continuity errors : sum local = 1.835996325385599e-08, global = -3.292711452834829e-10, cumulative = 8.054458964588885e-10
[INFO] PIMPLEStep: 6987.584 [ms]
PIMPLE: iteration 2
velocityDampingConstraint velocityDamping damped 0 (0%) of cells, with max limit 300
[INFO] MatrixAssemblyU: 2890.206 [ms]
smoothSolver:  Solving for Ux, Initial residual = 0.02676705292146214, Final residual = 9.239309555757338e-05, No Iterations 1
smoothSolver:  Solving for Uy, Initial residual = 0.03936185618338276, Final residual = 0.0001946666678871654, No Iterations 1
smoothSolver:  Solving for Uz, Initial residual = 0.0160550964274062, Final residual = 5.834028523784028e-05, No Iterations 1
[INFO] MomentumPredictor: 384.095 [ms]
[INFO] MatrixAssemblyPI: 302.725 [ms]
[INFO] MatrixAssemblyPII: 216.445 [ms]
GAMG:  Solving for p, Initial residual = 0.4159474630716316, Final residual = 0.003784176510144903, No Iterations 19
[INFO] SolveP: 2894.048 [ms]
time step continuity errors : sum local = 1.959570001156196e-08, global = -2.941753686571741e-10, cumulative = 5.112705278017144e-10
[INFO] PIMPLEStep: 6813.054 [ms]
PIMPLE: iteration 3
velocityDampingConstraint velocityDamping damped 0 (0%) of cells, with max limit 300
[INFO] MatrixAssemblyU: 2891.835 [ms]
smoothSolver:  Solving for Ux, Initial residual = 0.006821471716316048, Final residual = 2.638685481883588e-05, No Iterations 1
smoothSolver:  Solving for Uy, Initial residual = 0.01068057182282137, Final residual = 5.872673076933494e-05, No Iterations 1
smoothSolver:  Solving for Uz, Initial residual = 0.004110651163384057, Final residual = 1.708691248877936e-05, No Iterations 1
[INFO] MomentumPredictor: 384.973 [ms]
[INFO] MatrixAssemblyPI: 302.591 [ms]
[INFO] MatrixAssemblyPII: 217.236 [ms]
GAMG:  Solving for p, Initial residual = 0.436319868756244, Final residual = 0.004154102049986357, No Iterations 17
[INFO] SolveP: 2596.928 [ms]
time step continuity errors : sum local = 1.7035425022589e-08, global = -2.555763731616155e-10, cumulative = 2.556941546400989e-10
[INFO] PIMPLEStep: 6518.603 [ms]
PIMPLE: iteration 4
velocityDampingConstraint velocityDamping damped 0 (0%) of cells, with max limit 300
[INFO] MatrixAssemblyU: 2894.629 [ms]
smoothSolver:  Solving for Ux, Initial residual = 0.01194415001848116, Final residual = 4.377247886925184e-05, No Iterations 1
smoothSolver:  Solving for Uy, Initial residual = 0.0186609850853149, Final residual = 9.787072468375648e-05, No Iterations 1
smoothSolver:  Solving for Uz, Initial residual = 0.007234602995178116, Final residual = 2.8203542336988e-05, No Iterations 1
[INFO] MomentumPredictor: 383.837 [ms]
[INFO] MatrixAssemblyPI: 302.588 [ms]
[INFO] MatrixAssemblyPII: 216.334 [ms]
GAMG:  Solving for p, Initial residual = 0.3269787705391509, Final residual = 0.003073663766502766, No Iterations 15
[INFO] SolveP: 2298.834 [ms]
time step continuity errors : sum local = 1.264763696984052e-08, global = -1.808740369790597e-10, cumulative = 7.482011766103913e-11
[INFO] PIMPLEStep: 6221.549 [ms]
PIMPLE: iteration 5
velocityDampingConstraint velocityDamping damped 0 (0%) of cells, with max limit 300
[INFO] MatrixAssemblyU: 2894.138 [ms]
smoothSolver:  Solving for Ux, Initial residual = 0.008540560880972315, Final residual = 3.079148892533241e-05, No Iterations 1
smoothSolver:  Solving for Uy, Initial residual = 0.01347025804884058, Final residual = 6.947410144325413e-05, No Iterations 1
smoothSolver:  Solving for Uz, Initial residual = 0.005253436276366461, Final residual = 2.002762309031132e-05, No Iterations 1
[INFO] MomentumPredictor: 384.74 [ms]
[INFO] MatrixAssemblyPI: 302.252 [ms]
[INFO] MatrixAssemblyPII: 216.638 [ms]
GAMG:  Solving for p, Initial residual = 0.2284424086318859, Final residual = 0.002255496280881621, No Iterations 12
[INFO] SolveP: 1854.27 [ms]
time step continuity errors : sum local = 9.092067834316195e-09, global = -1.36661092726929e-10, cumulative = -6.184097506588984e-11
[INFO] PIMPLEStep: 5777.275 [ms]
PIMPLE: iteration 6
velocityDampingConstraint velocityDamping damped 0 (0%) of cells, with max limit 300
[INFO] MatrixAssemblyU: 2891.776 [ms]
smoothSolver:  Solving for Ux, Initial residual = 0.004487719171906658, Final residual = 1.58948124209363e-05, No Iterations 1
smoothSolver:  Solving for Uy, Initial residual = 0.007117662659884557, Final residual = 3.596777703410489e-05, No Iterations 1
smoothSolver:  Solving for Uz, Initial residual = 0.002797872241403957, Final residual = 1.042389939105573e-05, No Iterations 1
[INFO] MomentumPredictor: 384.444 [ms]
[INFO] MatrixAssemblyPI: 302.646 [ms]
[INFO] MatrixAssemblyPII: 217.502 [ms]
GAMG:  Solving for p, Initial residual = 0.1434489482334511, Final residual = 0.00135377555494882, No Iterations 10
[INFO] SolveP: 1557.767 [ms]
time step continuity errors : sum local = 5.527472759069124e-09, global = -5.1421759503681e-11, cumulative = -1.132627345695708e-10
[INFO] PIMPLEStep: 5478.746 [ms]
PIMPLE: iteration 7
velocityDampingConstraint velocityDamping damped 0 (0%) of cells, with max limit 300
[INFO] MatrixAssemblyU: 2891.212 [ms]
smoothSolver:  Solving for Ux, Initial residual = 0.001937803001242401, Final residual = 6.705172390611189e-06, No Iterations 1
smoothSolver:  Solving for Uy, Initial residual = 0.00306797095608445, Final residual = 1.509217481377695e-05, No Iterations 1
smoothSolver:  Solving for Uz, Initial residual = 0.001215927512001778, Final residual = 4.415798529990338e-06, No Iterations 1
[INFO] MomentumPredictor: 384.604 [ms]
[INFO] MatrixAssemblyPI: 302.32 [ms]
[INFO] MatrixAssemblyPII: 216.963 [ms]
GAMG:  Solving for p, Initial residual = 0.08666965480221411, Final residual = 0.0007787909918207082, No Iterations 8
[INFO] SolveP: 1261.264 [ms]
time step continuity errors : sum local = 3.251127088183049e-09, global = -1.240452485557624e-11, cumulative = -1.256672594251471e-10
[INFO] PIMPLEStep: 5181.401 [ms]
PIMPLE: iteration 8
velocityDampingConstraint velocityDamping damped 0 (0%) of cells, with max limit 300
[INFO] MatrixAssemblyU: 2885.182 [ms]
smoothSolver:  Solving for Ux, Initial residual = 0.0006998411316237397, Final residual = 2.353562856106341e-06, No Iterations 1
smoothSolver:  Solving for Uy, Initial residual = 0.001102796412925988, Final residual = 5.218224054343907e-06, No Iterations 1
smoothSolver:  Solving for Uz, Initial residual = 0.000441818875335893, Final residual = 1.557640490986378e-06, No Iterations 1
[INFO] MomentumPredictor: 384.95 [ms]
[INFO] MatrixAssemblyPI: 302.259 [ms]
[INFO] MatrixAssemblyPII: 216.708 [ms]
GAMG:  Solving for p, Initial residual = 0.05182640524085144, Final residual = 0.0004691418299193232, No Iterations 8
[INFO] SolveP: 1264.453 [ms]
time step continuity errors : sum local = 1.983638450645865e-09, global = -1.810501851863112e-11, cumulative = -1.437722779437782e-10
[INFO] PIMPLEStep: 5179.171 [ms]
PIMPLE: iteration 9
velocityDampingConstraint velocityDamping damped 0 (0%) of cells, with max limit 300
[INFO] MatrixAssemblyU: 2882.094 [ms]
smoothSolver:  Solving for Ux, Initial residual = 0.0001974988575824483, Final residual = 6.433895596546918e-07, No Iterations 1
smoothSolver:  Solving for Uy, Initial residual = 0.0003244211616626105, Final residual = 1.391203246643025e-06, No Iterations 1
smoothSolver:  Solving for Uz, Initial residual = 0.0001315574823585236, Final residual = 4.396484418126709e-07, No Iterations 1
[INFO] MomentumPredictor: 384.542 [ms]
[INFO] MatrixAssemblyPI: 302.535 [ms]
[INFO] MatrixAssemblyPII: 216.085 [ms]
GAMG:  Solving for p, Initial residual = 0.03092498871200796, Final residual = 0.0002810258348983507, No Iterations 10
[INFO] SolveP: 1557.902 [ms]
time step continuity errors : sum local = 1.196706888546038e-09, global = -7.692723574773946e-12, cumulative = -1.514650015185522e-10
[INFO] PIMPLEStep: 5469.122 [ms]
PIMPLE: iteration 10
velocityDampingConstraint velocityDamping damped 0 (0%) of cells, with max limit 300
[INFO] MatrixAssemblyU: 2878.036 [ms]
smoothSolver:  Solving for Ux, Initial residual = 3.36762998309609e-05, Final residual = 1.159466551548519e-07, No Iterations 1
smoothSolver:  Solving for Uy, Initial residual = 7.441916192582124e-05, Final residual = 2.561526562718535e-07, No Iterations 1
smoothSolver:  Solving for Uz, Initial residual = 3.038979230672373e-05, Final residual = 9.916562818379154e-08, No Iterations 1
[INFO] MomentumPredictor: 384.723 [ms]
[INFO] MatrixAssemblyPI: 302.582 [ms]
[INFO] MatrixAssemblyPII: 216.856 [ms]
GAMG:  Solving for p, Initial residual = 0.01849173257869035, Final residual = 0.0001841101630694844, No Iterations 11
[INFO] SolveP: 1704.661 [ms]
time step continuity errors : sum local = 7.870797108665397e-10, global = -4.495323131490211e-12, cumulative = -1.559603246500424e-10
[INFO] PIMPLEStep: 5612.186 [ms]
PIMPLE: iteration 11
velocityDampingConstraint velocityDamping damped 0 (0%) of cells, with max limit 300
[INFO] MatrixAssemblyU: 2880.966 [ms]
smoothSolver:  Solving for Ux, Initial residual = 2.176032661041884e-05, Final residual = 9.878874676592648e-08, No Iterations 1
smoothSolver:  Solving for Uy, Initial residual = 5.676576127141934e-05, Final residual = 2.554425619311742e-07, No Iterations 1
smoothSolver:  Solving for Uz, Initial residual = 1.935364319188052e-05, Final residual = 7.755416335144921e-08, No Iterations 1
[INFO] MomentumPredictor: 384.783 [ms]
[INFO] MatrixAssemblyPI: 302.222 [ms]
[INFO] MatrixAssemblyPII: 218.524 [ms]
GAMG:  Solving for p, Initial residual = 0.01112245722761419, Final residual = 0.000105599063627719, No Iterations 14
[INFO] SolveP: 2147.392 [ms]
time step continuity errors : sum local = 4.524929208433451e-10, global = -1.307842461610148e-12, cumulative = -1.572681671116525e-10
DILUPBiCGStab:  Solving for omega, Initial residual = 5.750305813094042e-05, Final residual = 7.087200952462324e-10, No Iterations 1
DILUPBiCGStab:  Solving for k, Initial residual = 0.05129818871247117, Final residual = 3.421536440894768e-09, No Iterations 1
[INFO] PIMPLEStep: 8493.502 [ms]
PIMPLE: converged in 11 iterations
[INFO] TimeStep: 67789.64 [ms]
ExecutionTime = 147.87 s  ClockTime = 149 s

Courant Number mean: 0.004346779070628072 max: 11.91471095620814
Time = 1.5e-05

PIMPLE: iteration 1
velocityDampingConstraint velocityDamping damped 0 (0%) of cells, with max limit 300
[INFO] MatrixAssemblyU: 2892.713 [ms]
smoothSolver:  Solving for Ux, Initial residual = 0.07389507013427354, Final residual = 0.0002579299530937736, No Iterations 1
smoothSolver:  Solving for Uy, Initial residual = 0.1247906105875483, Final residual = 0.0006196390072091624, No Iterations 1
smoothSolver:  Solving for Uz, Initial residual = 0.04516995680670878, Final residual = 0.0001675173751347381, No Iterations 1
[INFO] MomentumPredictor: 384.741 [ms]
[INFO] MatrixAssemblyPI: 316.164 [ms]
[INFO] MatrixAssemblyPII: 215.443 [ms]
GAMG:  Solving for p, Initial residual = 0.2576647469037652, Final residual = 0.002193792144755221, No Iterations 18
[INFO] SolveP: 2738.301 [ms]
time step continuity errors : sum local = 8.601487535074285e-09, global = 1.640191892517163e-10, cumulative = 6.75102214006379e-12
[INFO] PIMPLEStep: 6673.406 [ms]
PIMPLE: iteration 2
velocityDampingConstraint velocityDamping damped 0 (0%) of cells, with max limit 300
[INFO] MatrixAssemblyU: 2889.126 [ms]
smoothSolver:  Solving for Ux, Initial residual = 0.01390854515968494, Final residual = 4.793262512026548e-05, No Iterations 1
smoothSolver:  Solving for Uy, Initial residual = 0.02416354901970297, Final residual = 0.0001183368682765016, No Iterations 1
smoothSolver:  Solving for Uz, Initial residual = 0.009316912202757363, Final residual = 3.409436675408132e-05, No Iterations 1
[INFO] MomentumPredictor: 384.809 [ms]
[INFO] MatrixAssemblyPI: 302.398 [ms]
[INFO] MatrixAssemblyPII: 215.597 [ms]
GAMG:  Solving for p, Initial residual = 0.3137774155202674, Final residual = 0.003095236901795089, No Iterations 17
[INFO] SolveP: 2599.972 [ms]
time step continuity errors : sum local = 9.593853443730717e-09, global = 1.491383258630917e-10, cumulative = 1.558893480031555e-10
[INFO] PIMPLEStep: 6519.198 [ms]
PIMPLE: iteration 3
velocityDampingConstraint velocityDamping damped 0 (0%) of cells, with max limit 300
[INFO] MatrixAssemblyU: 2890.26 [ms]
smoothSolver:  Solving for Ux, Initial residual = 0.003096036841893482, Final residual = 1.189480940387081e-05, No Iterations 1
smoothSolver:  Solving for Uy, Initial residual = 0.005308771708777552, Final residual = 2.891768934146736e-05, No Iterations 1
smoothSolver:  Solving for Uz, Initial residual = 0.002045747439564643, Final residual = 8.342421999968106e-06, No Iterations 1
[INFO] MomentumPredictor: 384.614 [ms]
[INFO] MatrixAssemblyPI: 302.267 [ms]
[INFO] MatrixAssemblyPII: 216.092 [ms]
GAMG:  Solving for p, Initial residual = 0.2993598067879025, Final residual = 0.002522208358962945, No Iterations 16
[INFO] SolveP: 2444.112 [ms]
time step continuity errors : sum local = 6.201712842642914e-09, global = 1.149724831273203e-10, cumulative = 2.708618311304758e-10
[INFO] PIMPLEStep: 6363.533 [ms]
PIMPLE: iteration 4
velocityDampingConstraint velocityDamping damped 0 (0%) of cells, with max limit 300
[INFO] MatrixAssemblyU: 2890.598 [ms]
smoothSolver:  Solving for Ux, Initial residual = 0.004617992293071273, Final residual = 1.688522456008994e-05, No Iterations 1
smoothSolver:  Solving for Uy, Initial residual = 0.007798789003150775, Final residual = 4.040886531442241e-05, No Iterations 1
smoothSolver:  Solving for Uz, Initial residual = 0.003038995417895064, Final residual = 1.174608214600173e-05, No Iterations 1
[INFO] MomentumPredictor: 384.542 [ms]
[INFO] MatrixAssemblyPI: 302.558 [ms]
[INFO] MatrixAssemblyPII: 217.018 [ms]
GAMG:  Solving for p, Initial residual = 0.2402086922746486, Final residual = 0.002230172532364949, No Iterations 14
[INFO] SolveP: 2147.971 [ms]
time step continuity errors : sum local = 4.626477167792645e-09, global = 8.504069091169363e-11, cumulative = 3.559025220421694e-10
[INFO] PIMPLEStep: 6067.971 [ms]
PIMPLE: iteration 5
velocityDampingConstraint velocityDamping damped 0 (0%) of cells, with max limit 300
[INFO] MatrixAssemblyU: 2887.117 [ms]
smoothSolver:  Solving for Ux, Initial residual = 0.003002020562907228, Final residual = 1.081129904662858e-05, No Iterations 1
smoothSolver:  Solving for Uy, Initial residual = 0.005009479234664142, Final residual = 2.554936198190123e-05, No Iterations 1
smoothSolver:  Solving for Uz, Initial residual = 0.001953925953322274, Final residual = 7.423008289224945e-06, No Iterations 1
[INFO] MomentumPredictor: 384.325 [ms]
[INFO] MatrixAssemblyPI: 303.013 [ms]
[INFO] MatrixAssemblyPII: 216.844 [ms]
GAMG:  Solving for p, Initial residual = 0.1742155306493721, Final residual = 0.001646541700692275, No Iterations 12
[INFO] SolveP: 1856.537 [ms]
time step continuity errors : sum local = 3.065431236933489e-09, global = 5.12209831731828e-11, cumulative = 4.071235052153522e-10
[INFO] PIMPLEStep: 5771.913 [ms]
PIMPLE: iteration 6
velocityDampingConstraint velocityDamping damped 0 (0%) of cells, with max limit 300
[INFO] MatrixAssemblyU: 2887.272 [ms]
smoothSolver:  Solving for Ux, Initial residual = 0.001514033334002016, Final residual = 5.343499665256445e-06, No Iterations 1
smoothSolver:  Solving for Uy, Initial residual = 0.002504476651934238, Final residual = 1.253389250416795e-05, No Iterations 1
smoothSolver:  Solving for Uz, Initial residual = 0.0009779452957940087, Final residual = 3.642794986488685e-06, No Iterations 1
[INFO] MomentumPredictor: 384.946 [ms]
[INFO] MatrixAssemblyPI: 302.572 [ms]
[INFO] MatrixAssemblyPII: 217.468 [ms]
GAMG:  Solving for p, Initial residual = 0.1158630498408909, Final residual = 0.001048770400987408, No Iterations 10
[INFO] SolveP: 1560.475 [ms]
time step continuity errors : sum local = 1.84616588775014e-09, global = 2.4182045600321e-11, cumulative = 4.313055508156732e-10
[INFO] PIMPLEStep: 5476.596 [ms]
PIMPLE: iteration 7
velocityDampingConstraint velocityDamping damped 0 (0%) of cells, with max limit 300
[INFO] MatrixAssemblyU: 2884.36 [ms]
smoothSolver:  Solving for Ux, Initial residual = 0.0006448124937948123, Final residual = 2.21444749028987e-06, No Iterations 1
smoothSolver:  Solving for Uy, Initial residual = 0.001057595150652594, Final residual = 5.135675531815899e-06, No Iterations 1
smoothSolver:  Solving for Uz, Initial residual = 0.0004144344840765915, Final residual = 1.502137247057682e-06, No Iterations 1
[INFO] MomentumPredictor: 384.746 [ms]
[INFO] MatrixAssemblyPI: 302.011 [ms]
[INFO] MatrixAssemblyPII: 216.48 [ms]
GAMG:  Solving for p, Initial residual = 0.07265171972129331, Final residual = 0.0006513417205450898, No Iterations 8
[INFO] SolveP: 1262.375 [ms]
time step continuity errors : sum local = 1.116895296252494e-09, global = 6.177897127300738e-12, cumulative = 4.37483447942974e-10
[INFO] PIMPLEStep: 5174.944 [ms]
PIMPLE: iteration 8
velocityDampingConstraint velocityDamping damped 0 (0%) of cells, with max limit 300
[INFO] MatrixAssemblyU: 2885.045 [ms]
smoothSolver:  Solving for Ux, Initial residual = 0.0002328312323485487, Final residual = 7.738741120491722e-07, No Iterations 1
smoothSolver:  Solving for Uy, Initial residual = 0.0003781250658903905, Final residual = 1.749607061017468e-06, No Iterations 1
smoothSolver:  Solving for Uz, Initial residual = 0.0001496490393985716, Final residual = 5.21964335856951e-07, No Iterations 1
[INFO] MomentumPredictor: 384.723 [ms]
[INFO] MatrixAssemblyPI: 302.534 [ms]
[INFO] MatrixAssemblyPII: 216.833 [ms]
GAMG:  Solving for p, Initial residual = 0.04367895999775833, Final residual = 0.0004288969345336832, No Iterations 7
[INFO] SolveP: 1115.926 [ms]
time step continuity errors : sum local = 7.238536665741456e-10, global = 6.019140070943116e-12, cumulative = 4.435025880139171e-10
[INFO] PIMPLEStep: 5029.355 [ms]
PIMPLE: iteration 9
velocityDampingConstraint velocityDamping damped 0 (0%) of cells, with max limit 300
[INFO] MatrixAssemblyU: 2880.506 [ms]
smoothSolver:  Solving for Ux, Initial residual = 6.621452348007473e-05, Final residual = 2.116376940765412e-07, No Iterations 1
smoothSolver:  Solving for Uy, Initial residual = 0.0001107954304003203, Final residual = 4.616632231493481e-07, No Iterations 1
smoothSolver:  Solving for Uz, Initial residual = 4.448067822666817e-05, Final residual = 1.465240867994982e-07, No Iterations 1
[INFO] MomentumPredictor: 384.01 [ms]
[INFO] MatrixAssemblyPI: 302.169 [ms]
[INFO] MatrixAssemblyPII: 217.302 [ms]
GAMG:  Solving for p, Initial residual = 0.02577526776216775, Final residual = 0.0002527213538333319, No Iterations 9
[INFO] SolveP: 1412.686 [ms]
time step continuity errors : sum local = 4.230816500561784e-10, global = 3.457873031786663e-12, cumulative = 4.469604610457038e-10
[INFO] PIMPLEStep: 5321.098 [ms]
PIMPLE: iteration 10
velocityDampingConstraint velocityDamping damped 0 (0%) of cells, with max limit 300
[INFO] MatrixAssemblyU: 2881.392 [ms]
smoothSolver:  Solving for Ux, Initial residual = 1.136890871858931e-05, Final residual = 3.848446566738582e-08, No Iterations 1
smoothSolver:  Solving for Uy, Initial residual = 2.425213980989927e-05, Final residual = 8.199641432909798e-08, No Iterations 1
smoothSolver:  Solving for Uz, Initial residual = 1.003597596207748e-05, Final residual = 3.272047222541452e-08, No Iterations 1
[INFO] MomentumPredictor: 384.851 [ms]
[INFO] MatrixAssemblyPI: 302.312 [ms]
[INFO] MatrixAssemblyPII: 216.467 [ms]
GAMG:  Solving for p, Initial residual = 0.01508454667572185, Final residual = 0.0001428004889174925, No Iterations 11
[INFO] SolveP: 1707.373 [ms]
time step continuity errors : sum local = 2.380970321950314e-10, global = 1.749026999451163e-12, cumulative = 4.48709488045155e-10
[INFO] PIMPLEStep: 5617.636 [ms]
PIMPLE: iteration 11
velocityDampingConstraint velocityDamping damped 0 (0%) of cells, with max limit 300
[INFO] MatrixAssemblyU: 2886.331 [ms]
smoothSolver:  Solving for Ux, Initial residual = 7.693392425573976e-06, Final residual = 3.303203255763437e-08, No Iterations 1
smoothSolver:  Solving for Uy, Initial residual = 1.730664390932512e-05, Final residual = 8.253483723250068e-08, No Iterations 1
smoothSolver:  Solving for Uz, Initial residual = 6.294484270367127e-06, Final residual = 2.541081777176175e-08, No Iterations 1
[INFO] MomentumPredictor: 384.281 [ms]
[INFO] MatrixAssemblyPI: 302.117 [ms]
[INFO] MatrixAssemblyPII: 216.9 [ms]
GAMG:  Solving for p, Initial residual = 0.008814983721997172, Final residual = 8.242317743138329e-05, No Iterations 13
[INFO] SolveP: 2004.872 [ms]
time step continuity errors : sum local = 1.371416404146149e-10, global = 9.46411066325201e-13, cumulative = 4.496558991114802e-10
DILUPBiCGStab:  Solving for omega, Initial residual = 5.555302879557841e-05, Final residual = 5.474129092691221e-10, No Iterations 1
DILUPBiCGStab:  Solving for k, Initial residual = 0.02595912050093036, Final residual = 1.889047267959699e-09, No Iterations 1
[INFO] PIMPLEStep: 8350.115 [ms]
PIMPLE: converged in 11 iterations
[INFO] TimeStep: 66424.769 [ms]
ExecutionTime = 215.81 s  ClockTime = 217 s

Courant Number mean: 0.004346731474504993 max: 12.21137957259321
Time = 2e-05

PIMPLE: iteration 1
velocityDampingConstraint velocityDamping damped 0 (0%) of cells, with max limit 300
[INFO] MatrixAssemblyU: 2893.787 [ms]
smoothSolver:  Solving for Ux, Initial residual = 0.000313260491157288, Final residual = 2.094154449519357e-06, No Iterations 1
smoothSolver:  Solving for Uy, Initial residual = 0.001093115009377418, Final residual = 5.752349766809957e-06, No Iterations 1
smoothSolver:  Solving for Uz, Initial residual = 0.0004234735627957585, Final residual = 2.256261773118061e-06, No Iterations 1
[INFO] MomentumPredictor: 384.096 [ms]
[INFO] MatrixAssemblyPI: 315.772 [ms]
[INFO] MatrixAssemblyPII: 215.151 [ms]
GAMG:  Solving for p, Initial residual = 0.1463973568770064, Final residual = 0.001139403218483219, No Iterations 4
[INFO] SolveP: 671.891 [ms]
time step continuity errors : sum local = 1.804673602517799e-09, global = 6.609210780823366e-12, cumulative = 4.562651098923036e-10
[INFO] PIMPLEStep: 4607.348 [ms]
PIMPLE: iteration 2
velocityDampingConstraint velocityDamping damped 0 (0%) of cells, with max limit 300
[INFO] MatrixAssemblyU: 2880.263 [ms]
smoothSolver:  Solving for Ux, Initial residual = 8.979792333976136e-05, Final residual = 6.240171582558792e-07, No Iterations 1
smoothSolver:  Solving for Uy, Initial residual = 0.0003132284375495511, Final residual = 1.715718651350118e-06, No Iterations 1
smoothSolver:  Solving for Uz, Initial residual = 0.000121771856982335, Final residual = 6.661058722307837e-07, No Iterations 1
[INFO] MomentumPredictor: 384.538 [ms]
[INFO] MatrixAssemblyPI: 302.234 [ms]
[INFO] MatrixAssemblyPII: 216.649 [ms]
GAMG:  Solving for p, Initial residual = 0.1489990904360776, Final residual = 0.001225965381691331, No Iterations 4
[INFO] SolveP: 671.662 [ms]
time step continuity errors : sum local = 1.852548903556247e-09, global = 7.32298294716965e-12, cumulative = 4.635880928394732e-10
[INFO] PIMPLEStep: 4581.032 [ms]
PIMPLE: iteration 3
velocityDampingConstraint velocityDamping damped 0 (0%) of cells, with max limit 300
[INFO] MatrixAssemblyU: 2880.002 [ms]
smoothSolver:  Solving for Ux, Initial residual = 1.997057766653511e-05, Final residual = 1.577083321274869e-07, No Iterations 1
smoothSolver:  Solving for Uy, Initial residual = 7.298496373926415e-05, Final residual = 4.401523921387309e-07, No Iterations 1
smoothSolver:  Solving for Uz, Initial residual = 2.833165021380973e-05, Final residual = 1.644757860702012e-07, No Iterations 1
[INFO] MomentumPredictor: 383.09 [ms]
[INFO] MatrixAssemblyPI: 302.012 [ms]
[INFO] MatrixAssemblyPII: 216.11 [ms]
GAMG:  Solving for p, Initial residual = 0.1030343311589331, Final residual = 0.00100045092220698, No Iterations 4
[INFO] SolveP: 671.425 [ms]
time step continuity errors : sum local = 1.463834090686799e-09, global = 7.149930577769448e-12, cumulative = 4.707380234172427e-10
[INFO] PIMPLEStep: 4578.457 [ms]
PIMPLE: iteration 4
velocityDampingConstraint velocityDamping damped 0 (0%) of cells, with max limit 300
[INFO] MatrixAssemblyU: 2881.041 [ms]
smoothSolver:  Solving for Ux, Initial residual = 7.708593320004662e-06, Final residual = 6.056507116975025e-08, No Iterations 1
smoothSolver:  Solving for Uy, Initial residual = 2.427680510483219e-05, Final residual = 1.398170068751131e-07, No Iterations 1
smoothSolver:  Solving for Uz, Initial residual = 9.3610063350322e-06, Final residual = 5.54066776124303e-08, No Iterations 1
[INFO] MomentumPredictor: 384.321 [ms]
[INFO] MatrixAssemblyPI: 303.474 [ms]
[INFO] MatrixAssemblyPII: 216.443 [ms]
GAMG:  Solving for p, Initial residual = 0.06165503026708917, Final residual = 0.0005405890646481359, No Iterations 6
[INFO] SolveP: 969.112 [ms]
time step continuity errors : sum local = 7.754078975106946e-10, global = 5.588209532932762e-12, cumulative = 4.763262329501754e-10
[INFO] PIMPLEStep: 4879.161 [ms]
PIMPLE: iteration 5
velocityDampingConstraint velocityDamping damped 0 (0%) of cells, with max limit 300
[INFO] MatrixAssemblyU: 2881.107 [ms]
smoothSolver:  Solving for Ux, Initial residual = 6.171578663512619e-06, Final residual = 3.983342062140591e-08, No Iterations 1
smoothSolver:  Solving for Uy, Initial residual = 1.931820005085199e-05, Final residual = 8.913438974764907e-08, No Iterations 1
smoothSolver:  Solving for Uz, Initial residual = 7.687446465373579e-06, Final residual = 3.734953616941264e-08, No Iterations 1
[INFO] MomentumPredictor: 384.164 [ms]
[INFO] MatrixAssemblyPI: 302.369 [ms]
[INFO] MatrixAssemblyPII: 215.917 [ms]
GAMG:  Solving for p, Initial residual = 0.03581156586214717, Final residual = 0.0003441209721135954, No Iterations 9
[INFO] SolveP: 1412.149 [ms]
time step continuity errors : sum local = 4.878025130897249e-10, global = 4.241591801274311e-12, cumulative = 4.805678247514498e-10
[INFO] PIMPLEStep: 5321.48 [ms]
PIMPLE: iteration 6
velocityDampingConstraint velocityDamping damped 0 (0%) of cells, with max limit 300
[INFO] MatrixAssemblyU: 2876.814 [ms]
smoothSolver:  Solving for Ux, Initial residual = 4.194040344165369e-06, Final residual = 2.575551779327526e-08, No Iterations 1
smoothSolver:  Solving for Uy, Initial residual = 1.343217390700987e-05, Final residual = 5.90063228293994e-08, No Iterations 1
smoothSolver:  Solving for Uz, Initial residual = 5.391957076166769e-06, Final residual = 2.425812225511379e-08, No Iterations 1
[INFO] MomentumPredictor: 384.423 [ms]
[INFO] MatrixAssemblyPI: 302.167 [ms]
[INFO] MatrixAssemblyPII: 216.998 [ms]
GAMG:  Solving for p, Initial residual = 0.02036970551142289, Final residual = 0.0001939397018485454, No Iterations 14
[INFO] SolveP: 2150.644 [ms]
time step continuity errors : sum local = 2.73085527214695e-10, global = 2.93883715118656e-12, cumulative = 4.835066619026363e-10
[INFO] PIMPLEStep: 6055.659 [ms]
PIMPLE: iteration 7
velocityDampingConstraint velocityDamping damped 0 (0%) of cells, with max limit 300
[INFO] MatrixAssemblyU: 2879.459 [ms]
smoothSolver:  Solving for Ux, Initial residual = 2.618152470468565e-06, Final residual = 1.494888507598353e-08, No Iterations 1
smoothSolver:  Solving for Uy, Initial residual = 8.411356401276226e-06, Final residual = 3.498592038370389e-08, No Iterations 1
smoothSolver:  Solving for Uz, Initial residual = 3.420722024036987e-06, Final residual = 1.42191569648008e-08, No Iterations 1
[INFO] MomentumPredictor: 384.306 [ms]
[INFO] MatrixAssemblyPI: 302 [ms]
[INFO] MatrixAssemblyPII: 216.804 [ms]
GAMG:  Solving for p, Initial residual = 0.01151300111324678, Final residual = 0.0001101040686163894, No Iterations 18
[INFO] SolveP: 2746.038 [ms]
time step continuity errors : sum local = 1.54468644869022e-10, global = 1.933718100697975e-12, cumulative = 4.854403800033343e-10
[INFO] PIMPLEStep: 6652.714 [ms]
PIMPLE: iteration 8
velocityDampingConstraint velocityDamping damped 0 (0%) of cells, with max limit 300
[INFO] MatrixAssemblyU: 2878.358 [ms]
smoothSolver:  Solving for Ux, Initial residual = 1.627301193671347e-06, Final residual = 8.286355410602212e-09, No Iterations 1
smoothSolver:  Solving for Uy, Initial residual = 5.050081218714502e-06, Final residual = 1.973245393557552e-08, No Iterations 1
smoothSolver:  Solving for Uz, Initial residual = 2.084363580196509e-06, Final residual = 7.864709415227576e-09, No Iterations 1
[INFO] MomentumPredictor: 383.943 [ms]
[INFO] MatrixAssemblyPI: 302.24 [ms]
[INFO] MatrixAssemblyPII: 215.564 [ms]
GAMG:  Solving for p, Initial residual = 0.006528571513429737, Final residual = 6.26805707535376e-05, No Iterations 21
[INFO] SolveP: 3186.874 [ms]
time step continuity errors : sum local = 8.775825782211275e-11, global = 1.22471753991716e-12, cumulative = 4.866650975432515e-10
[INFO] PIMPLEStep: 7092.903 [ms]
PIMPLE: iteration 9
velocityDampingConstraint velocityDamping damped 0 (0%) of cells, with max limit 300
[INFO] MatrixAssemblyU: 2880.467 [ms]
smoothSolver:  Solving for Ux, Initial residual = 1.021865722573225e-06, Final residual = 4.519586255321376e-09, No Iterations 1
smoothSolver:  Solving for Uy, Initial residual = 3.002487920096479e-06, Final residual = 1.109774900821358e-08, No Iterations 1
smoothSolver:  Solving for Uz, Initial residual = 1.260173262539299e-06, Final residual = 4.25886197592725e-09, No Iterations 1
[INFO] MomentumPredictor: 384.56 [ms]
[INFO] MatrixAssemblyPI: 300.556 [ms]
[INFO] MatrixAssemblyPII: 216.807 [ms]
GAMG:  Solving for p, Initial residual = 0.003752955773125704, Final residual = 3.621423563876682e-05, No Iterations 23
[INFO] SolveP: 3487.696 [ms]
time step continuity errors : sum local = 5.064690330782958e-11, global = 7.563588546949164e-13, cumulative = 4.874214563979464e-10
[INFO] PIMPLEStep: 7394.364 [ms]
PIMPLE: iteration 10
velocityDampingConstraint velocityDamping damped 0 (0%) of cells, with max limit 300
[INFO] MatrixAssemblyU: 2881.405 [ms]
smoothSolver:  Solving for Ux, Initial residual = 6.488009391758682e-07, Final residual = 2.509111164221009e-09, No Iterations 1
smoothSolver:  Solving for Uy, Initial residual = 1.792430751927663e-06, Final residual = 6.333531757550812e-09, No Iterations 1
smoothSolver:  Solving for Uz, Initial residual = 7.610191905023197e-07, Final residual = 2.324228368092576e-09, No Iterations 1
[INFO] MomentumPredictor: 383.495 [ms]
[INFO] MatrixAssemblyPI: 301.829 [ms]
[INFO] MatrixAssemblyPII: 217.603 [ms]
GAMG:  Solving for p, Initial residual = 0.002188164190011707, Final residual = 2.147674545397224e-05, No Iterations 24
[INFO] SolveP: 3637.857 [ms]
time step continuity errors : sum local = 3.001777970237008e-11, global = 4.673678560689835e-13, cumulative = 4.878888242540154e-10
[INFO] PIMPLEStep: 7547.13 [ms]
PIMPLE: iteration 11
velocityDampingConstraint velocityDamping damped 0 (0%) of cells, with max limit 300
[INFO] MatrixAssemblyU: 2878.251 [ms]
smoothSolver:  Solving for Ux, Initial residual = 4.111633124370382e-07, Final residual = 1.462920366786596e-09, No Iterations 1
smoothSolver:  Solving for Uy, Initial residual = 1.078868146048812e-06, Final residual = 3.74689606115515e-09, No Iterations 1
smoothSolver:  Solving for Uz, Initial residual = 4.5645923287616e-07, Final residual = 1.315072293763999e-09, No Iterations 1
[INFO] MomentumPredictor: 384.221 [ms]
[INFO] MatrixAssemblyPI: 302.922 [ms]
[INFO] MatrixAssemblyPII: 216.616 [ms]
GAMG:  Solving for p, Initial residual = 0.001285999440789131, Final residual = 1.260051621667388e-05, No Iterations 25
[INFO] SolveP: 3778.734 [ms]
time step continuity errors : sum local = 1.760567333700574e-11, global = 2.828241236072281e-13, cumulative = 4.881716483776226e-10
[INFO] PIMPLEStep: 7685.164 [ms]
PIMPLE: iteration 12
velocityDampingConstraint velocityDamping damped 0 (0%) of cells, with max limit 300
[INFO] MatrixAssemblyU: 2880.173 [ms]
smoothSolver:  Solving for Ux, Initial residual = 2.590150587824589e-07, Final residual = 8.936716939344993e-10, No Iterations 1
smoothSolver:  Solving for Uy, Initial residual = 6.597359836776168e-07, Final residual = 2.302092655776385e-09, No Iterations 1
smoothSolver:  Solving for Uz, Initial residual = 2.737632198352766e-07, Final residual = 7.748129928561479e-10, No Iterations 1
[INFO] MomentumPredictor: 383.527 [ms]
[INFO] MatrixAssemblyPI: 301.996 [ms]
[INFO] MatrixAssemblyPII: 216.642 [ms]
GAMG:  Solving for p, Initial residual = 0.0007591762694945912, Final residual = 7.336930144477444e-06, No Iterations 26
[INFO] SolveP: 3933.717 [ms]
time step continuity errors : sum local = 1.024940095080964e-11, global = 1.683549895561837e-13, cumulative = 4.883400033671788e-10
DILUPBiCGStab:  Solving for omega, Initial residual = 5.356029871915112e-05, Final residual = 3.69899889120304e-10, No Iterations 1
DILUPBiCGStab:  Solving for k, Initial residual = 0.01709707832638567, Final residual = 1.334177556344449e-09, No Iterations 1
[INFO] PIMPLEStep: 10271.763 [ms]
PIMPLE: converged in 12 iterations
[INFO] TimeStep: 76727.2 [ms]
ExecutionTime = 294 s  ClockTime = 296 s

Courant Number mean: 0.00434665067910038 max: 12.26513521392098
Time = 2.5e-05

PIMPLE: iteration 1
velocityDampingConstraint velocityDamping damped 0 (0%) of cells, with max limit 300
[INFO] MatrixAssemblyU: 2894.394 [ms]
smoothSolver:  Solving for Ux, Initial residual = 0.0002015879942325047, Final residual = 1.414749910433345e-06, No Iterations 1
smoothSolver:  Solving for Uy, Initial residual = 0.000824240366315797, Final residual = 4.05523993409338e-06, No Iterations 1
smoothSolver:  Solving for Uz, Initial residual = 0.0002979884206081795, Final residual = 1.555276362944092e-06, No Iterations 1
[INFO] MomentumPredictor: 383.959 [ms]
[INFO] MatrixAssemblyPI: 315.634 [ms]
[INFO] MatrixAssemblyPII: 216.106 [ms]
GAMG:  Solving for p, Initial residual = 0.08037468366175961, Final residual = 0.0007351232809547851, No Iterations 3
[INFO] SolveP: 524.932 [ms]
time step continuity errors : sum local = 9.778791522762045e-10, global = -1.198063867449936e-12, cumulative = 4.871419394997288e-10
[INFO] PIMPLEStep: 4461.554 [ms]
PIMPLE: iteration 2
velocityDampingConstraint velocityDamping damped 0 (0%) of cells, with max limit 300
[INFO] MatrixAssemblyU: 2877.817 [ms]
smoothSolver:  Solving for Ux, Initial residual = 5.864904776071101e-05, Final residual = 4.306553232861549e-07, No Iterations 1
smoothSolver:  Solving for Uy, Initial residual = 0.0002385346849451859, Final residual = 1.229893488784159e-06, No Iterations 1
smoothSolver:  Solving for Uz, Initial residual = 8.738538316299022e-05, Final residual = 4.695268608168651e-07, No Iterations 1
[INFO] MomentumPredictor: 384.109 [ms]
[INFO] MatrixAssemblyPI: 301.602 [ms]
[INFO] MatrixAssemblyPII: 216.972 [ms]
GAMG:  Solving for p, Initial residual = 0.09239732991285797, Final residual = 0.0008759685944732902, No Iterations 3
[INFO] SolveP: 524.048 [ms]
time step continuity errors : sum local = 1.11622008086665e-09, global = -2.524322661822968e-12, cumulative = 4.846176168379058e-10
[INFO] PIMPLEStep: 4429.63 [ms]
PIMPLE: iteration 3
velocityDampingConstraint velocityDamping damped 0 (0%) of cells, with max limit 300
[INFO] MatrixAssemblyU: 2881.576 [ms]
smoothSolver:  Solving for Ux, Initial residual = 1.45229010198277e-05, Final residual = 1.2061422536885e-07, No Iterations 1
smoothSolver:  Solving for Uy, Initial residual = 5.781238474283103e-05, Final residual = 3.419479108331601e-07, No Iterations 1
smoothSolver:  Solving for Uz, Initial residual = 2.171465595468524e-05, Final residual = 1.275699219312411e-07, No Iterations 1
[INFO] MomentumPredictor: 383.419 [ms]
[INFO] MatrixAssemblyPI: 302.006 [ms]
[INFO] MatrixAssemblyPII: 215.949 [ms]
GAMG:  Solving for p, Initial residual = 0.06814849509924564, Final residual = 0.0004457313681314692, No Iterations 4
[INFO] SolveP: 673.547 [ms]
time step continuity errors : sum local = 5.519299923500509e-10, global = -1.824712445317882e-12, cumulative = 4.82792904392588e-10
[INFO] PIMPLEStep: 4582.326 [ms]
PIMPLE: iteration 4
velocityDampingConstraint velocityDamping damped 0 (0%) of cells, with max limit 300
[INFO] MatrixAssemblyU: 2883.874 [ms]
smoothSolver:  Solving for Ux, Initial residual = 5.667389801716946e-06, Final residual = 4.02768252880993e-08, No Iterations 1
smoothSolver:  Solving for Uy, Initial residual = 1.905606063226975e-05, Final residual = 1.067018370064157e-07, No Iterations 1
smoothSolver:  Solving for Uz, Initial residual = 6.671171425216762e-06, Final residual = 4.058159110433693e-08, No Iterations 1
[INFO] MomentumPredictor: 384.215 [ms]
[INFO] MatrixAssemblyPI: 302.18 [ms]
[INFO] MatrixAssemblyPII: 215.948 [ms]
GAMG:  Solving for p, Initial residual = 0.04352103920316917, Final residual = 0.0003282899319150994, No Iterations 4
[INFO] SolveP: 674.41 [ms]
time step continuity errors : sum local = 3.992708261448626e-10, global = -1.315571917416733e-12, cumulative = 4.814773324751713e-10
[INFO] PIMPLEStep: 4585.971 [ms]
PIMPLE: iteration 5
velocityDampingConstraint velocityDamping damped 0 (0%) of cells, with max limit 300
[INFO] MatrixAssemblyU: 2878.676 [ms]
smoothSolver:  Solving for Ux, Initial residual = 3.957362535955965e-06, Final residual = 2.311361272110784e-08, No Iterations 1
smoothSolver:  Solving for Uy, Initial residual = 1.3288024313376e-05, Final residual = 5.657216952629447e-08, No Iterations 1
smoothSolver:  Solving for Uz, Initial residual = 4.403525629372344e-06, Final residual = 2.239289952406569e-08, No Iterations 1
[INFO] MomentumPredictor: 385.124 [ms]
[INFO] MatrixAssemblyPI: 301.932 [ms]
[INFO] MatrixAssemblyPII: 217.556 [ms]
GAMG:  Solving for p, Initial residual = 0.02619105684396042, Final residual = 0.000239484994972211, No Iterations 4
[INFO] SolveP: 672.247 [ms]
time step continuity errors : sum local = 2.881529397911181e-10, global = -1.511367842411953e-12, cumulative = 4.799659646327593e-10
[INFO] PIMPLEStep: 4579.428 [ms]
PIMPLE: iteration 6
velocityDampingConstraint velocityDamping damped 0 (0%) of cells, with max limit 300
[INFO] MatrixAssemblyU: 2879.912 [ms]
smoothSolver:  Solving for Ux, Initial residual = 2.453869125545067e-06, Final residual = 1.458478289141329e-08, No Iterations 1
smoothSolver:  Solving for Uy, Initial residual = 8.535026661741081e-06, Final residual = 3.456530692015247e-08, No Iterations 1
smoothSolver:  Solving for Uz, Initial residual = 2.891323378466602e-06, Final residual = 1.359722080117453e-08, No Iterations 1
[INFO] MomentumPredictor: 384.64 [ms]
[INFO] MatrixAssemblyPI: 302.652 [ms]
[INFO] MatrixAssemblyPII: 216.333 [ms]
GAMG:  Solving for p, Initial residual = 0.01535160031757569, Final residual = 0.0001384922321421082, No Iterations 6
[INFO] SolveP: 967.066 [ms]
time step continuity errors : sum local = 1.655988392043942e-10, global = -8.893279061319877e-13, cumulative = 4.790766367266273e-10
[INFO] PIMPLEStep: 4875.795 [ms]
PIMPLE: iteration 7
velocityDampingConstraint velocityDamping damped 0 (0%) of cells, with max limit 300
[INFO] MatrixAssemblyU: 2880.335 [ms]
smoothSolver:  Solving for Ux, Initial residual = 1.450250011602643e-06, Final residual = 8.780021306764865e-09, No Iterations 1
smoothSolver:  Solving for Uy, Initial residual = 5.081221600925657e-06, Final residual = 2.095686745862043e-08, No Iterations 1
smoothSolver:  Solving for Uz, Initial residual = 1.779212545777705e-06, Final residual = 8.054904640476825e-09, No Iterations 1
[INFO] MomentumPredictor: 384.258 [ms]
[INFO] MatrixAssemblyPI: 302.25 [ms]
[INFO] MatrixAssemblyPII: 216.948 [ms]
GAMG:  Solving for p, Initial residual = 0.008894453994465645, Final residual = 8.394165050696107e-05, No Iterations 9
[INFO] SolveP: 1412.581 [ms]
time step continuity errors : sum local = 1.000027452728729e-10, global = -6.743816234818162e-13, cumulative = 4.784022551031455e-10
[INFO] PIMPLEStep: 5320.895 [ms]
PIMPLE: iteration 8
velocityDampingConstraint velocityDamping damped 0 (0%) of cells, with max limit 300
[INFO] MatrixAssemblyU: 2880.225 [ms]
smoothSolver:  Solving for Ux, Initial residual = 8.362820125987621e-07, Final residual = 5.116626732400864e-09, No Iterations 1
smoothSolver:  Solving for Uy, Initial residual = 2.948043901051421e-06, Final residual = 1.238690491469714e-08, No Iterations 1
smoothSolver:  Solving for Uz, Initial residual = 1.072681830887012e-06, Final residual = 4.633151275016805e-09, No Iterations 1
[INFO] MomentumPredictor: 384.853 [ms]
[INFO] MatrixAssemblyPI: 302.009 [ms]
[INFO] MatrixAssemblyPII: 216.363 [ms]
GAMG:  Solving for p, Initial residual = 0.005144706728957443, Final residual = 5.024604765718875e-05, No Iterations 12
[INFO] SolveP: 1855.33 [ms]
time step continuity errors : sum local = 5.973122224318848e-11, global = -4.464254817126665e-13, cumulative = 4.779558296214328e-10
[INFO] PIMPLEStep: 5763.646 [ms]
PIMPLE: iteration 9
velocityDampingConstraint velocityDamping damped 0 (0%) of cells, with max limit 300
[INFO] MatrixAssemblyU: 2880.577 [ms]
smoothSolver:  Solving for Ux, Initial residual = 4.887996878277474e-07, Final residual = 2.940571296340907e-09, No Iterations 1
smoothSolver:  Solving for Uy, Initial residual = 1.731441495904158e-06, Final residual = 7.272167075615376e-09, No Iterations 1
smoothSolver:  Solving for Uz, Initial residual = 6.478965911866974e-07, Final residual = 2.64452430114291e-09, No Iterations 1
[INFO] MomentumPredictor: 384.606 [ms]
[INFO] MatrixAssemblyPI: 301.948 [ms]
[INFO] MatrixAssemblyPII: 217.408 [ms]
GAMG:  Solving for p, Initial residual = 0.002976584876801019, Final residual = 2.899113873033032e-05, No Iterations 15
[INFO] SolveP: 2297.059 [ms]
time step continuity errors : sum local = 3.442045254006541e-11, global = -3.030235080672991e-13, cumulative = 4.776528061133655e-10
[INFO] PIMPLEStep: 6205.911 [ms]
PIMPLE: iteration 10
velocityDampingConstraint velocityDamping damped 0 (0%) of cells, with max limit 300
[INFO] MatrixAssemblyU: 2878.861 [ms]
smoothSolver:  Solving for Ux, Initial residual = 2.902434527008762e-07, Final residual = 1.671601576999512e-09, No Iterations 1
smoothSolver:  Solving for Uy, Initial residual = 1.042433211585704e-06, Final residual = 4.238166258508984e-09, No Iterations 1
smoothSolver:  Solving for Uz, Initial residual = 3.951412601070672e-07, Final residual = 1.50279244051051e-09, No Iterations 1
[INFO] MomentumPredictor: 384.008 [ms]
[INFO] MatrixAssemblyPI: 301.988 [ms]
[INFO] MatrixAssemblyPII: 216.752 [ms]
GAMG:  Solving for p, Initial residual = 0.001733005616018154, Final residual = 1.715032278651492e-05, No Iterations 17
[INFO] SolveP: 2595.235 [ms]
time step continuity errors : sum local = 2.034705032376064e-11, global = -2.076721111911856e-13, cumulative = 4.774451340021744e-10
[INFO] PIMPLEStep: 6502.231 [ms]
PIMPLE: iteration 11
velocityDampingConstraint velocityDamping damped 0 (0%) of cells, with max limit 300
[INFO] MatrixAssemblyU: 2880.605 [ms]
smoothSolver:  Solving for Ux, Initial residual = 1.760298974144086e-07, Final residual = 9.755945620095453e-10, No Iterations 1
smoothSolver:  Solving for Uy, Initial residual = 6.333935953799821e-07, Final residual = 2.483095389742067e-09, No Iterations 1
smoothSolver:  Solving for Uz, Initial residual = 2.409527976936012e-07, Final residual = 8.645478471701963e-10, No Iterations 1
[INFO] MomentumPredictor: 384.972 [ms]
[INFO] MatrixAssemblyPI: 302.302 [ms]
[INFO] MatrixAssemblyPII: 217.051 [ms]
GAMG:  Solving for p, Initial residual = 0.001021965308781475, Final residual = 9.879513299386821e-06, No Iterations 19
[INFO] SolveP: 2893.662 [ms]
time step continuity errors : sum local = 1.17158936085415e-11, global = -1.378338031669271e-13, cumulative = 4.773073001990075e-10
[INFO] PIMPLEStep: 6802.967 [ms]
PIMPLE: iteration 12
velocityDampingConstraint velocityDamping damped 0 (0%) of cells, with max limit 300
[INFO] MatrixAssemblyU: 2880.552 [ms]
smoothSolver:  Solving for Ux, Initial residual = 1.107136460137274e-07, Final residual = 5.874625065609754e-10, No Iterations 1
smoothSolver:  Solving for Uy, Initial residual = 3.886301837680751e-07, Final residual = 1.479634203900077e-09, No Iterations 1
smoothSolver:  Solving for Uz, Initial residual = 1.48002248194277e-07, Final residual = 5.072321885512164e-10, No Iterations 1
[INFO] MomentumPredictor: 384.053 [ms]
[INFO] MatrixAssemblyPI: 302.184 [ms]
[INFO] MatrixAssemblyPII: 216.646 [ms]
GAMG:  Solving for p, Initial residual = 0.0006078331316133714, Final residual = 5.89546962399107e-06, No Iterations 20
[INFO] SolveP: 3039.143 [ms]
time step continuity errors : sum local = 6.989513599879077e-12, global = -9.148341392723255e-14, cumulative = 4.772158167850803e-10
DILUPBiCGStab:  Solving for omega, Initial residual = 5.189045930702607e-05, Final residual = 2.610407887069042e-10, No Iterations 1
DILUPBiCGStab:  Solving for k, Initial residual = 0.0125704253506382, Final residual = 1.062788783718064e-09, No Iterations 1
[INFO] PIMPLEStep: 9375.018 [ms]
PIMPLE: converged in 12 iterations
[INFO] TimeStep: 67547.399 [ms]
ExecutionTime = 363.06 s  ClockTime = 365 s

Courant Number mean: 0.004346584066122432 max: 12.16388809673069
Time = 3e-05

PIMPLE: iteration 1
velocityDampingConstraint velocityDamping damped 0 (0%) of cells, with max limit 300
[INFO] MatrixAssemblyU: 2894.475 [ms]
smoothSolver:  Solving for Ux, Initial residual = 0.0001556392820375628, Final residual = 1.154640702074318e-06, No Iterations 1
smoothSolver:  Solving for Uy, Initial residual = 0.0006100203132226258, Final residual = 3.227671048893106e-06, No Iterations 1
smoothSolver:  Solving for Uz, Initial residual = 0.0002273981642933334, Final residual = 1.229475418553387e-06, No Iterations 1
[INFO] MomentumPredictor: 387.4 [ms]
[INFO] MatrixAssemblyPI: 316.064 [ms]
[INFO] MatrixAssemblyPII: 216.29 [ms]
GAMG:  Solving for p, Initial residual = 0.05471810165074226, Final residual = 0.0003583436475176818, No Iterations 3
[INFO] SolveP: 524.044 [ms]
time step continuity errors : sum local = 4.09633332412202e-10, global = -2.033432458545878e-13, cumulative = 4.770124735392257e-10
[INFO] PIMPLEStep: 4463.323 [ms]
PIMPLE: iteration 2
velocityDampingConstraint velocityDamping damped 0 (0%) of cells, with max limit 300
[INFO] MatrixAssemblyU: 2879.322 [ms]
smoothSolver:  Solving for Ux, Initial residual = 4.654075080653686e-05, Final residual = 3.572740479324478e-07, No Iterations 1
smoothSolver:  Solving for Uy, Initial residual = 0.0001822870772163533, Final residual = 9.980223144090259e-07, No Iterations 1
smoothSolver:  Solving for Uz, Initial residual = 6.80564077514637e-05, Final residual = 3.775695805441566e-07, No Iterations 1
[INFO] MomentumPredictor: 384.837 [ms]
[INFO] MatrixAssemblyPI: 302.131 [ms]
[INFO] MatrixAssemblyPII: 216.858 [ms]
GAMG:  Solving for p, Initial residual = 0.07018255562031027, Final residual = 0.0004432678536054542, No Iterations 3
[INFO] SolveP: 524.557 [ms]
time step continuity errors : sum local = 4.90095524240919e-10, global = -5.979888149627901e-13, cumulative = 4.764144847242629e-10
[INFO] PIMPLEStep: 4433.081 [ms]
PIMPLE: iteration 3
velocityDampingConstraint velocityDamping damped 0 (0%) of cells, with max limit 300
[INFO] MatrixAssemblyU: 2879.566 [ms]
smoothSolver:  Solving for Ux, Initial residual = 1.30302095767338e-05, Final residual = 1.076853663336677e-07, No Iterations 1
smoothSolver:  Solving for Uy, Initial residual = 4.930848939551686e-05, Final residual = 2.996848450873624e-07, No Iterations 1
smoothSolver:  Solving for Uz, Initial residual = 1.835659691431623e-05, Final residual = 1.10577145725753e-07, No Iterations 1
[INFO] MomentumPredictor: 384.697 [ms]
[INFO] MatrixAssemblyPI: 302.605 [ms]
[INFO] MatrixAssemblyPII: 217.201 [ms]
GAMG:  Solving for p, Initial residual = 0.05305350354172508, Final residual = 0.0003331854094134081, No Iterations 3
[INFO] SolveP: 523.802 [ms]
time step continuity errors : sum local = 3.603245220660986e-10, global = -8.875180102207069e-13, cumulative = 4.755269667140421e-10
[INFO] PIMPLEStep: 4432.189 [ms]
PIMPLE: iteration 4
velocityDampingConstraint velocityDamping damped 0 (0%) of cells, with max limit 300
[INFO] MatrixAssemblyU: 2880.01 [ms]
smoothSolver:  Solving for Ux, Initial residual = 3.829658608908245e-06, Final residual = 3.44946227978905e-08, No Iterations 1
smoothSolver:  Solving for Uy, Initial residual = 1.271222637609659e-05, Final residual = 9.339289868227329e-08, No Iterations 1
smoothSolver:  Solving for Uz, Initial residual = 4.731640682013272e-06, Final residual = 3.362270976277561e-08, No Iterations 1
[INFO] MomentumPredictor: 384.828 [ms]
[INFO] MatrixAssemblyPI: 302.654 [ms]
[INFO] MatrixAssemblyPII: 216.524 [ms]
GAMG:  Solving for p, Initial residual = 0.03418664216909244, Final residual = 0.0002311475051293173, No Iterations 3
[INFO] SolveP: 524.466 [ms]
time step continuity errors : sum local = 2.465821999664274e-10, global = -8.263685049778275e-13, cumulative = 4.747005982090643e-10
[INFO] PIMPLEStep: 4433.405 [ms]
PIMPLE: iteration 5
velocityDampingConstraint velocityDamping damped 0 (0%) of cells, with max limit 300
[INFO] MatrixAssemblyU: 2882.254 [ms]
smoothSolver:  Solving for Ux, Initial residual = 1.853174149380613e-06, Final residual = 1.446194705955095e-08, No Iterations 1
smoothSolver:  Solving for Uy, Initial residual = 5.824489741646667e-06, Final residual = 3.784646440017501e-08, No Iterations 1
smoothSolver:  Solving for Uz, Initial residual = 2.204789080493632e-06, Final residual = 1.420951099482386e-08, No Iterations 1
[INFO] MomentumPredictor: 384.447 [ms]
[INFO] MatrixAssemblyPI: 302.185 [ms]
[INFO] MatrixAssemblyPII: 217.131 [ms]
GAMG:  Solving for p, Initial residual = 0.02059439477816411, Final residual = 0.000163037725428499, No Iterations 3
[INFO] SolveP: 525.585 [ms]
time step continuity errors : sum local = 1.725126551104828e-10, global = -7.150917578572066e-13, cumulative = 4.739855064512071e-10
[INFO] PIMPLEStep: 4436.527 [ms]
PIMPLE: iteration 6
velocityDampingConstraint velocityDamping damped 0 (0%) of cells, with max limit 300
[INFO] MatrixAssemblyU: 2882.172 [ms]
smoothSolver:  Solving for Ux, Initial residual = 1.213561183059214e-06, Final residual = 8.004771015523427e-09, No Iterations 1
smoothSolver:  Solving for Uy, Initial residual = 3.788167862402888e-06, Final residual = 1.981038994433379e-08, No Iterations 1
smoothSolver:  Solving for Uz, Initial residual = 1.419428816449344e-06, Final residual = 7.704579155882466e-09, No Iterations 1
[INFO] MomentumPredictor: 385.419 [ms]
[INFO] MatrixAssemblyPI: 301.946 [ms]
[INFO] MatrixAssemblyPII: 216.324 [ms]
GAMG:  Solving for p, Initial residual = 0.012048816374484, Final residual = 0.0001135294206235534, No Iterations 3
[INFO] SolveP: 525.4589999999999 [ms]
time step continuity errors : sum local = 1.195532788843345e-10, global = -5.600957838452327e-13, cumulative = 4.734254106673619e-10
[INFO] PIMPLEStep: 4436.442 [ms]
PIMPLE: iteration 7
velocityDampingConstraint velocityDamping damped 0 (0%) of cells, with max limit 300
[INFO] MatrixAssemblyU: 2881.686 [ms]
smoothSolver:  Solving for Ux, Initial residual = 7.906910341190216e-07, Final residual = 4.911302036210799e-09, No Iterations 1
smoothSolver:  Solving for Uy, Initial residual = 2.415728371099917e-06, Final residual = 1.200317184711901e-08, No Iterations 1
smoothSolver:  Solving for Uz, Initial residual = 8.90382094810878e-07, Final residual = 4.582323464010671e-09, No Iterations 1
[INFO] MomentumPredictor: 384.524 [ms]
[INFO] MatrixAssemblyPI: 302.223 [ms]
[INFO] MatrixAssemblyPII: 216.986 [ms]
GAMG:  Solving for p, Initial residual = 0.006966103538297165, Final residual = 5.056478833308944e-05, No Iterations 4
[INFO] SolveP: 672.3049999999999 [ms]
time step continuity errors : sum local = 5.309925075293387e-11, global = -4.041986690194622e-13, cumulative = 4.730212119983424e-10
[INFO] PIMPLEStep: 4582.258 [ms]
PIMPLE: iteration 8
velocityDampingConstraint velocityDamping damped 0 (0%) of cells, with max limit 300
[INFO] MatrixAssemblyU: 2881.855 [ms]
smoothSolver:  Solving for Ux, Initial residual = 4.947483156502544e-07, Final residual = 3.036009663301374e-09, No Iterations 1
smoothSolver:  Solving for Uy, Initial residual = 1.464391164756131e-06, Final residual = 7.816524880417423e-09, No Iterations 1
smoothSolver:  Solving for Uz, Initial residual = 5.578139666905796e-07, Final residual = 2.842877233673122e-09, No Iterations 1
[INFO] MomentumPredictor: 384.775 [ms]
[INFO] MatrixAssemblyPI: 302.288 [ms]
[INFO] MatrixAssemblyPII: 215.926 [ms]
GAMG:  Solving for p, Initial residual = 0.00402462779591211, Final residual = 3.677764784736418e-05, No Iterations 4
[INFO] SolveP: 671.876 [ms]
time step continuity errors : sum local = 3.855872527301063e-11, global = -2.780487032502213e-13, cumulative = 4.727431632950922e-10
[INFO] PIMPLEStep: 4581.941 [ms]
PIMPLE: iteration 9
velocityDampingConstraint velocityDamping damped 0 (0%) of cells, with max limit 300
[INFO] MatrixAssemblyU: 2879.507 [ms]
smoothSolver:  Solving for Ux, Initial residual = 2.927494494963907e-07, Final residual = 1.780223408387694e-09, No Iterations 1
smoothSolver:  Solving for Uy, Initial residual = 8.324315586659967e-07, Final residual = 4.647326198478065e-09, No Iterations 1
smoothSolver:  Solving for Uz, Initial residual = 3.231917870274661e-07, Final residual = 1.652414713909475e-09, No Iterations 1
[INFO] MomentumPredictor: 384.905 [ms]
[INFO] MatrixAssemblyPI: 302.059 [ms]
[INFO] MatrixAssemblyPII: 217.389 [ms]
GAMG:  Solving for p, Initial residual = 0.002354158312363328, Final residual = 2.141651011275128e-05, No Iterations 6
[INFO] SolveP: 967.669 [ms]
time step continuity errors : sum local = 2.243306223428334e-11, global = -1.766426232838235e-13, cumulative = 4.725665206718084e-10
[INFO] PIMPLEStep: 4875.533 [ms]
PIMPLE: iteration 10
velocityDampingConstraint velocityDamping damped 0 (0%) of cells, with max limit 300
[INFO] MatrixAssemblyU: 2879.055 [ms]
smoothSolver:  Solving for Ux, Initial residual = 1.757046658183876e-07, Final residual = 1.037835490226255e-09, No Iterations 1
smoothSolver:  Solving for Uy, Initial residual = 4.830184472991489e-07, Final residual = 2.756598338289373e-09, No Iterations 1
smoothSolver:  Solving for Uz, Initial residual = 1.931258423398273e-07, Final residual = 9.698123575994513e-10, No Iterations 1
[INFO] MomentumPredictor: 385.204 [ms]
[INFO] MatrixAssemblyPI: 302.031 [ms]
[INFO] MatrixAssemblyPII: 216.93 [ms]
GAMG:  Solving for p, Initial residual = 0.001387179625012337, Final residual = 1.288404303349062e-05, No Iterations 9
[INFO] SolveP: 1409.627 [ms]
time step continuity errors : sum local = 1.348864136540054e-11, global = -1.116401090204322e-13, cumulative = 4.72454880562788e-10
[INFO] PIMPLEStep: 5317.483 [ms]
PIMPLE: iteration 11
velocityDampingConstraint velocityDamping damped 0 (0%) of cells, with max limit 300
[INFO] MatrixAssemblyU: 2880.303 [ms]
smoothSolver:  Solving for Ux, Initial residual = 1.061888394489216e-07, Final residual = 6.122911344320171e-10, No Iterations 1
smoothSolver:  Solving for Uy, Initial residual = 2.908846378440336e-07, Final residual = 1.644484225937831e-09, No Iterations 1
smoothSolver:  Solving for Uz, Initial residual = 1.186087466736228e-07, Final residual = 5.783840593377687e-10, No Iterations 1
[INFO] MomentumPredictor: 384.751 [ms]
[INFO] MatrixAssemblyPI: 302.049 [ms]
[INFO] MatrixAssemblyPII: 217.329 [ms]
GAMG:  Solving for p, Initial residual = 0.0008220377057045679, Final residual = 7.798907541422923e-06, No Iterations 12
[INFO] SolveP: 1857.962 [ms]
time step continuity errors : sum local = 8.162473052952182e-12, global = -7.740668758412359e-14, cumulative = 4.723774738752039e-10
DILUPBiCGStab:  Solving for omega, Initial residual = 5.066304101882991e-05, Final residual = 1.984954083050612e-10, No Iterations 1
DILUPBiCGStab:  Solving for k, Initial residual = 0.009822634134516717, Final residual = 9.083466689969082e-10, No Iterations 1
[INFO] PIMPLEStep: 8199.1 [ms]
PIMPLE: converged in 11 iterations
[INFO] TimeStep: 54250.002 [ms]
ExecutionTime = 418.88 s  ClockTime = 421 s

Courant Number mean: 0.004346533487616538 max: 11.99225196209259
Time = 3.5e-05

PIMPLE: iteration 1
velocityDampingConstraint velocityDamping damped 0 (0%) of cells, with max limit 300
[INFO] MatrixAssemblyU: 2890.801 [ms]
smoothSolver:  Solving for Ux, Initial residual = 0.0001402635139602138, Final residual = 1.030550388170288e-06, No Iterations 1
smoothSolver:  Solving for Uy, Initial residual = 0.0005129132295098955, Final residual = 2.833299731342366e-06, No Iterations 1
smoothSolver:  Solving for Uz, Initial residual = 0.0001914557224085507, Final residual = 1.060385926151222e-06, No Iterations 1
[INFO] MomentumPredictor: 384.752 [ms]
[INFO] MatrixAssemblyPI: 315.548 [ms]
[INFO] MatrixAssemblyPII: 216.648 [ms]
GAMG:  Solving for p, Initial residual = 0.04074610526078479, Final residual = 0.0001726316367774093, No Iterations 3
[INFO] SolveP: 526.075 [ms]
time step continuity errors : sum local = 1.754548953610348e-10, global = -3.511679866471612e-14, cumulative = 4.723423570765392e-10
[INFO] PIMPLEStep: 4458.62 [ms]
PIMPLE: iteration 2
velocityDampingConstraint velocityDamping damped 0 (0%) of cells, with max limit 300
[INFO] MatrixAssemblyU: 2883.752 [ms]
[...]
PIMPLE: iteration 5
velocityDampingConstraint velocityDamping damped 0 (0%) of cells, with max limit 300
[INFO] MatrixAssemblyU: 2874.075 [ms]
smoothSolver:  Solving for Ux, Initial residual = 5.459111300027525e-07, Final residual = 4.37676332965474e-09, No Iterations 1
smoothSolver:  Solving for Uy, Initial residual = 1.222458072394641e-06, Final residual = 1.256763869099074e-08, No Iterations 1
smoothSolver:  Solving for Uz, Initial residual = 4.406108042663619e-07, Final residual = 4.130435301571293e-09, No Iterations 1
[INFO] MomentumPredictor: 383.895 [ms]
[INFO] MatrixAssemblyPI: 301.94 [ms]
[INFO] MatrixAssemblyPII: 216.91 [ms]
GAMG:  Solving for p, Initial residual = 0.003266813324882772, Final residual = 2.825831773962185e-05, No Iterations 3
[INFO] SolveP: 523.652 [ms]
time step continuity errors : sum local = 8.016714580630702e-12, global = -1.610016539660834e-16, cumulative = 4.768842962708904e-10
[INFO] PIMPLEStep: 4424.532 [ms]
PIMPLE: iteration 6
velocityDampingConstraint velocityDamping damped 0 (0%) of cells, with max limit 300
[INFO] MatrixAssemblyU: 2876.702 [ms]
smoothSolver:  Solving for Ux, Initial residual = 1.749191135918983e-07, Final residual = 1.518746521464356e-09, No Iterations 1
smoothSolver:  Solving for Uy, Initial residual = 3.895556753356188e-07, Final residual = 4.316319457953246e-09, No Iterations 1
smoothSolver:  Solving for Uz, Initial residual = 1.394307814570179e-07, Final residual = 1.402048907510205e-09, No Iterations 1
[INFO] MomentumPredictor: 384.155 [ms]
[INFO] MatrixAssemblyPI: 301.95 [ms]
[INFO] MatrixAssemblyPII: 215.997 [ms]
GAMG:  Solving for p, Initial residual = 0.002074217712876958, Final residual = 1.939965063745409e-05, No Iterations 3
[INFO] SolveP: 523.572 [ms]
time step continuity errors : sum local = 5.499626510832303e-12, global = -6.132028150934379e-16, cumulative = 4.768836830680753e-10
[INFO] PIMPLEStep: 4428.153 [ms]
PIMPLE: iteration 7
velocityDampingConstraint velocityDamping damped 0 (0%) of cells, with max limit 300
[INFO] MatrixAssemblyU: 2874.552 [ms]
smoothSolver:  Solving for Ux, Initial residual = 6.068798596120689e-08, Final residual = 5.863868164561223e-10, No Iterations 1
smoothSolver:  Solving for Uy, Initial residual = 1.369180030648597e-07, Final residual = 1.638525202118957e-09, No Iterations 1
smoothSolver:  Solving for Uz, Initial residual = 4.876346482779704e-08, Final residual = 5.222501813024653e-10, No Iterations 1
[INFO] MomentumPredictor: 385.172 [ms]
[INFO] MatrixAssemblyPI: 301.809 [ms]
[INFO] MatrixAssemblyPII: 215.579 [ms]
GAMG:  Solving for p, Initial residual = 0.001298329959059602, Final residual = 7.611936030696278e-06, No Iterations 4
[INFO] SolveP: 674.629 [ms]
time step continuity errors : sum local = 2.156973645249526e-12, global = 1.74500500349188e-15, cumulative = 4.768854280730788e-10
[INFO] PIMPLEStep: 4577.29 [ms]
PIMPLE: iteration 8
velocityDampingConstraint velocityDamping damped 0 (0%) of cells, with max limit 300
[INFO] MatrixAssemblyU: 2870.991 [ms]
smoothSolver:  Solving for Ux, Initial residual = 2.590309106682911e-08, Final residual = 2.744317407645043e-10, No Iterations 1
smoothSolver:  Solving for Uy, Initial residual = 6.5285072196288e-08, Final residual = 7.97113131065827e-10, No Iterations 1
smoothSolver:  Solving for Uz, Initial residual = 2.325820667150422e-08, Final residual = 2.490631974800361e-10, No Iterations 1
[INFO] MomentumPredictor: 385.218 [ms]
[INFO] MatrixAssemblyPI: 301.832 [ms]
[INFO] MatrixAssemblyPII: 216.718 [ms]
GAMG:  Solving for p, Initial residual = 0.0008098300772899106, Final residual = 5.389493606610063e-06, No Iterations 4
[INFO] SolveP: 671.054 [ms]
time step continuity errors : sum local = 1.52680238125432e-12, global = 3.13227000143144e-15, cumulative = 4.768885603430803e-10
[INFO] PIMPLEStep: 4570.683 [ms]
PIMPLE: iteration 9
velocityDampingConstraint velocityDamping damped 0 (0%) of cells, with max limit 300
[INFO] MatrixAssemblyU: 2873.49 [ms]
smoothSolver:  Solving for Ux, Initial residual = 1.248669785438495e-08, Final residual = 1.429195845887826e-10, No Iterations 1
smoothSolver:  Solving for Uy, Initial residual = 3.603141934149077e-08, Final residual = 4.23084916964926e-10, No Iterations 1
smoothSolver:  Solving for Uz, Initial residual = 1.295645831866647e-08, Final residual = 1.34558903049689e-10, No Iterations 1
[INFO] MomentumPredictor: 383.557 [ms]
[INFO] MatrixAssemblyPI: 302.198 [ms]
[INFO] MatrixAssemblyPII: 217.104 [ms]
GAMG:  Solving for p, Initial residual = 0.0005080249206827111, Final residual = 3.770647787593302e-06, No Iterations 4
[INFO] SolveP: 672.494 [ms]
time step continuity errors : sum local = 1.068023350052016e-12, global = 3.856208671901155e-15, cumulative = 4.768924165517522e-10
[INFO] PIMPLEStep: 4572.428 [ms]
PIMPLE: iteration 10
velocityDampingConstraint velocityDamping damped 0 (0%) of cells, with max limit 300
[INFO] MatrixAssemblyU: 2874.188 [ms]
smoothSolver:  Solving for Ux, Initial residual = 6.348320127085193e-09, Final residual = 8.447138823187122e-11, No Iterations 1
smoothSolver:  Solving for Uy, Initial residual = 2.055041892827407e-08, Final residual = 2.548550017595971e-10, No Iterations 1
smoothSolver:  Solving for Uz, Initial residual = 7.413929830837747e-09, Final residual = 8.037942823086089e-11, No Iterations 1
[INFO] MomentumPredictor: 384.655 [ms]
[INFO] MatrixAssemblyPI: 301.927 [ms]
[INFO] MatrixAssemblyPII: 216.846 [ms]
GAMG:  Solving for p, Initial residual = 0.0003234569823947709, Final residual = 2.660350617490753e-06, No Iterations 4
[INFO] SolveP: 672.83 [ms]
time step continuity errors : sum local = 7.534599586827096e-13, global = 2.612167584815652e-15, cumulative = 4.76895028719337e-10
[INFO] PIMPLEStep: 4575.287 [ms]
PIMPLE: iteration 11
velocityDampingConstraint velocityDamping damped 0 (0%) of cells, with max limit 300
[INFO] MatrixAssemblyU: 2874.948 [ms]
smoothSolver:  Solving for Ux, Initial residual = 3.291384640820583e-09, Final residual = 5.201746132342072e-11, No Iterations 1
smoothSolver:  Solving for Uy, Initial residual = 1.245932666920056e-08, Final residual = 1.6598766565163e-10, No Iterations 1
smoothSolver:  Solving for Uz, Initial residual = 4.384686127505568e-09, Final residual = 5.2514739739955e-11, No Iterations 1
[INFO] MomentumPredictor: 383.704 [ms]
[INFO] MatrixAssemblyPI: 302.136 [ms]
[INFO] MatrixAssemblyPII: 217.12 [ms]
GAMG:  Solving for p, Initial residual = 0.0002078840221589557, Final residual = 2.005835293449251e-06, No Iterations 4
[INFO] SolveP: 673.325 [ms]
time step continuity errors : sum local = 5.680550713754284e-13, global = 2.664404592939674e-15, cumulative = 4.768976931239299e-10
[INFO] PIMPLEStep: 4574.818 [ms]
PIMPLE: iteration 12
velocityDampingConstraint velocityDamping damped 0 (0%) of cells, with max limit 300
[INFO] MatrixAssemblyU: 2873.637 [ms]
smoothSolver:  Solving for Ux, Initial residual = 1.924340609709989e-09, Final residual = 3.469720433993691e-11, No Iterations 1
smoothSolver:  Solving for Uy, Initial residual = 7.416103076740684e-09, Final residual = 1.06240941057862e-10, No Iterations 1
smoothSolver:  Solving for Uz, Initial residual = 2.673934313429387e-09, Final residual = 3.551028267361578e-11, No Iterations 1
[INFO] MomentumPredictor: 385.268 [ms]
[INFO] MatrixAssemblyPI: 301.493 [ms]
[INFO] MatrixAssemblyPII: 215.787 [ms]
GAMG:  Solving for p, Initial residual = 0.0001365705814611564, Final residual = 1.344058712143771e-06, No Iterations 5
[INFO] SolveP: 821.285 [ms]
time step continuity errors : sum local = 3.806246090845217e-13, global = 1.562726971276507e-15, cumulative = 4.768992558509012e-10
DILUPBiCGStab:  Solving for omega, Initial residual = 3.047921895596413e-05, Final residual = 9.337445517644004e-11, No Iterations 1
DILUPBiCGStab:  Solving for k, Initial residual = 9.610999918906882e-05, Final residual = 7.459840793643947e-10, No Iterations 1
[INFO] PIMPLEStep: 7152.551 [ms]
PIMPLE: converged in 12 iterations
[INFO] TimeStep: 56979.225 [ms]
ExecutionTime = 2702.62 s  ClockTime = 2716 s

Courant Number mean: 0.00434592617625586 max: 9.225048766414874
Time = 0.00025

PIMPLE: iteration 1
velocityDampingConstraint velocityDamping damped 0 (0%) of cells, with max limit 300
[INFO] MatrixAssemblyU: 2888.361 [ms]
smoothSolver:  Solving for Ux, Initial residual = 6.261529260895391e-05, Final residual = 4.347801320338401e-07, No Iterations 1
smoothSolver:  Solving for Uy, Initial residual = 0.0001398496687390511, Final residual = 1.222565572815569e-06, No Iterations 1
smoothSolver:  Solving for Uz, Initial residual = 5.07899528848154e-05, Final residual = 4.107780784002363e-07, No Iterations 1
[INFO] MomentumPredictor: 384.768 [ms]
[INFO] MatrixAssemblyPI: 315.667 [ms]
[INFO] MatrixAssemblyPII: 217.188 [ms]
GAMG:  Solving for p, Initial residual = 0.002953021723743314, Final residual = 1.894927408742843e-05, No Iterations 5
[INFO] SolveP: 818.706 [ms]
time step continuity errors : sum local = 5.359267911215914e-12, global = 1.371415894485208e-15, cumulative = 4.769006272667957e-10
[INFO] PIMPLEStep: 4749.782 [ms]
PIMPLE: iteration 2
velocityDampingConstraint velocityDamping damped 0 (0%) of cells, with max limit 300
[INFO] MatrixAssemblyU: 2871.557 [ms]
smoothSolver:  Solving for Ux, Initial residual = 1.891005694085823e-05, Final residual = 1.345789280315265e-07, No Iterations 1
smoothSolver:  Solving for Uy, Initial residual = 4.253223091967975e-05, Final residual = 3.818419185574147e-07, No Iterations 1
smoothSolver:  Solving for Uz, Initial residual = 1.543617802107661e-05, Final residual = 1.28004399745511e-07, No Iterations 1
[INFO] MomentumPredictor: 384.32 [ms]
[INFO] MatrixAssemblyPI: 302.34 [ms]
[INFO] MatrixAssemblyPII: 217.237 [ms]
GAMG:  Solving for p, Initial residual = 0.007748653308183339, Final residual = 5.343688217229356e-05, No Iterations 3
[INFO] SolveP: 524.662 [ms]
time step continuity errors : sum local = 1.505330139757057e-11, global = 5.478629915756367e-15, cumulative = 4.769061058967114e-10
[INFO] PIMPLEStep: 4424.929 [ms]
PIMPLE: iteration 3
velocityDampingConstraint velocityDamping damped 0 (0%) of cells, with max limit 300
[INFO] MatrixAssemblyU: 2870.878 [ms]
smoothSolver:  Solving for Ux, Initial residual = 5.741083369791075e-06, Final residual = 4.204823770768249e-08, No Iterations 1
smoothSolver:  Solving for Uy, Initial residual = 1.294272464143922e-05, Final residual = 1.201703015039337e-07, No Iterations 1
smoothSolver:  Solving for Uz, Initial residual = 4.692588782143448e-06, Final residual = 4.01229959653995e-08, No Iterations 1
[INFO] MomentumPredictor: 384.28 [ms]
[INFO] MatrixAssemblyPI: 302.063 [ms]
[INFO] MatrixAssemblyPII: 216.791 [ms]
GAMG:  Solving for p, Initial residual = 0.006819755042010318, Final residual = 4.912322934498081e-05, No Iterations 3
[INFO] SolveP: 524.889 [ms]
time step continuity errors : sum local = 1.379956910741236e-11, global = 3.267114301935054e-15, cumulative = 4.769093730110134e-10
[INFO] PIMPLEStep: 4423.729 [ms]
PIMPLE: iteration 4
velocityDampingConstraint velocityDamping damped 0 (0%) of cells, with max limit 300
[INFO] MatrixAssemblyU: 2875.103 [ms]
smoothSolver:  Solving for Ux, Initial residual = 1.751973168787524e-06, Final residual = 1.332439176177696e-08, No Iterations 1
smoothSolver:  Solving for Uy, Initial residual = 3.944142419987795e-06, Final residual = 3.830977498822225e-08, No Iterations 1
smoothSolver:  Solving for Uz, Initial residual = 1.427683288095569e-06, Final residual = 1.271269208981446e-08, No Iterations 1
[INFO] MomentumPredictor: 383.555 [ms]
[INFO] MatrixAssemblyPI: 302.465 [ms]
[INFO] MatrixAssemblyPII: 216.87 [ms]
GAMG:  Solving for p, Initial residual = 0.004857612971573711, Final residual = 3.963817814484705e-05, No Iterations 3
[INFO] SolveP: 523.875 [ms]
time step continuity errors : sum local = 1.111482864647416e-11, global = 2.44905787432665e-15, cumulative = 4.769118220688877e-10
[INFO] PIMPLEStep: 4426.715 [ms]
PIMPLE: iteration 5
velocityDampingConstraint velocityDamping damped 0 (0%) of cells, with max limit 300
[INFO] MatrixAssemblyU: 2872.888 [ms]
smoothSolver:  Solving for Ux, Initial residual = 5.423561232120253e-07, Final residual = 4.342114566127298e-09, No Iterations 1
smoothSolver:  Solving for Uy, Initial residual = 1.214883909929127e-06, Final residual = 1.250069865940087e-08, No Iterations 1
smoothSolver:  Solving for Uz, Initial residual = 4.380828988749642e-07, Final residual = 4.113857152193064e-09, No Iterations 1
[INFO] MomentumPredictor: 384.433 [ms]
[INFO] MatrixAssemblyPI: 302.278 [ms]
[INFO] MatrixAssemblyPII: 216.278 [ms]
GAMG:  Solving for p, Initial residual = 0.003189683714135304, Final residual = 2.829075379648705e-05, No Iterations 3
[INFO] SolveP: 524.419 [ms]
time step continuity errors : sum local = 7.923889764066744e-12, global = 9.666543726549254e-16, cumulative = 4.769127887232604e-10
[INFO] PIMPLEStep: 4425.745 [ms]
PIMPLE: iteration 6
velocityDampingConstraint velocityDamping damped 0 (0%) of cells, with max limit 300
[INFO] MatrixAssemblyU: 2874.813 [ms]
smoothSolver:  Solving for Ux, Initial residual = 1.74241646525279e-07, Final residual = 1.494235798987508e-09, No Iterations 1
smoothSolver:  Solving for Uy, Initial residual = 3.885685666714194e-07, Final residual = 4.263759924885963e-09, No Iterations 1
smoothSolver:  Solving for Uz, Initial residual = 1.392120036845348e-07, Final residual = 1.389945414111083e-09, No Iterations 1
[INFO] MomentumPredictor: 383.897 [ms]
[INFO] MatrixAssemblyPI: 301.69 [ms]
[INFO] MatrixAssemblyPII: 216.612 [ms]
GAMG:  Solving for p, Initial residual = 0.002020989603023091, Final residual = 1.955460273016257e-05, No Iterations 3
[INFO] SolveP: 524.843 [ms]
time step continuity errors : sum local = 5.473157403102392e-12, global = 8.232061121322056e-16, cumulative = 4.769136119293725e-10
[INFO] PIMPLEStep: 4427.812 [ms]
PIMPLE: iteration 7
velocityDampingConstraint velocityDamping damped 0 (0%) of cells, with max limit 300
[INFO] MatrixAssemblyU: 2874.812 [ms]
smoothSolver:  Solving for Ux, Initial residual = 6.070096825710475e-08, Final residual = 5.720150586524684e-10, No Iterations 1
smoothSolver:  Solving for Uy, Initial residual = 1.374157747597325e-07, Final residual = 1.616344693755203e-09, No Iterations 1
smoothSolver:  Solving for Uz, Initial residual = 4.891375612419278e-08, Final residual = 5.156794939143619e-10, No Iterations 1
[INFO] MomentumPredictor: 384.899 [ms]
[INFO] MatrixAssemblyPI: 302.203 [ms]
[INFO] MatrixAssemblyPII: 216.068 [ms]
GAMG:  Solving for p, Initial residual = 0.001261145483244449, Final residual = 7.678810005546654e-06, No Iterations 4
[INFO] SolveP: 672.026 [ms]
time step continuity errors : sum local = 2.148311580565416e-12, global = 4.076768721008468e-15, cumulative = 4.769176886980935e-10
[INFO] PIMPLEStep: 4575.547 [ms]
PIMPLE: iteration 8
velocityDampingConstraint velocityDamping damped 0 (0%) of cells, with max limit 300
[INFO] MatrixAssemblyU: 2872.193 [ms]
smoothSolver:  Solving for Ux, Initial residual = 2.583644901982544e-08, Final residual = 2.624896540358036e-10, No Iterations 1
smoothSolver:  Solving for Uy, Initial residual = 6.5620662597466e-08, Final residual = 7.742845184420118e-10, No Iterations 1
smoothSolver:  Solving for Uz, Initial residual = 2.340027198532935e-08, Final residual = 2.419708417034051e-10, No Iterations 1
[INFO] MomentumPredictor: 384.46 [ms]
[INFO] MatrixAssemblyPI: 301.995 [ms]
[INFO] MatrixAssemblyPII: 216.503 [ms]
GAMG:  Solving for p, Initial residual = 0.0007828545649448096, Final residual = 5.155198315647154e-06, No Iterations 4
[INFO] SolveP: 670.794 [ms]
time step continuity errors : sum local = 1.44190109421394e-12, global = 5.646536258281735e-15, cumulative = 4.769233352343518e-10
[INFO] PIMPLEStep: 4571.105 [ms]
PIMPLE: iteration 9
velocityDampingConstraint velocityDamping damped 0 (0%) of cells, with max limit 300
[INFO] MatrixAssemblyU: 2875.232 [ms]
smoothSolver:  Solving for Ux, Initial residual = 1.232974405027408e-08, Final residual = 1.335600650016336e-10, No Iterations 1
smoothSolver:  Solving for Uy, Initial residual = 3.64456031393687e-08, Final residual = 4.081353351906215e-10, No Iterations 1
smoothSolver:  Solving for Uz, Initial residual = 1.292116431858553e-08, Final residual = 1.294066609559488e-10, No Iterations 1
[INFO] MomentumPredictor: 384.328 [ms]
[INFO] MatrixAssemblyPI: 302.082 [ms]
[INFO] MatrixAssemblyPII: 216.839 [ms]
GAMG:  Solving for p, Initial residual = 0.0004885787322501836, Final residual = 3.726305980022642e-06, No Iterations 4
[INFO] SolveP: 675.086 [ms]
time step continuity errors : sum local = 1.042078086868405e-12, global = 3.236607568501102e-15, cumulative = 4.769265718419202e-10
[INFO] PIMPLEStep: 4578.787 [ms]
PIMPLE: iteration 10
velocityDampingConstraint velocityDamping damped 0 (0%) of cells, with max limit 300
[INFO] MatrixAssemblyU: 2875.617 [ms]
smoothSolver:  Solving for Ux, Initial residual = 6.071035389572348e-09, Final residual = 7.091759502474118e-11, No Iterations 1
smoothSolver:  Solving for Uy, Initial residual = 2.091915747942591e-08, Final residual = 2.265399367038444e-10, No Iterations 1
smoothSolver:  Solving for Uz, Initial residual = 7.379128290284285e-09, Final residual = 7.362661387014234e-11, No Iterations 1
[INFO] MomentumPredictor: 383.989 [ms]
[INFO] MatrixAssemblyPI: 302.052 [ms]
[INFO] MatrixAssemblyPII: 216.141 [ms]
GAMG:  Solving for p, Initial residual = 0.000308465710006205, Final residual = 2.574680671938858e-06, No Iterations 4
[INFO] SolveP: 671.662 [ms]
time step continuity errors : sum local = 7.199508684847227e-13, global = 2.456723355704606e-15, cumulative = 4.76929028565276e-10
[INFO] PIMPLEStep: 4575.315 [ms]
PIMPLE: iteration 11
velocityDampingConstraint velocityDamping damped 0 (0%) of cells, with max limit 300
[INFO] MatrixAssemblyU: 2873.917 [ms]
smoothSolver:  Solving for Ux, Initial residual = 3.075042871908148e-09, Final residual = 4.127986196259389e-11, No Iterations 1
smoothSolver:  Solving for Uy, Initial residual = 1.224978416258882e-08, Final residual = 1.361698542529637e-10, No Iterations 1
smoothSolver:  Solving for Uz, Initial residual = 4.246624332405572e-09, Final residual = 4.434658772674605e-11, No Iterations 1
[INFO] MomentumPredictor: 385.105 [ms]
[INFO] MatrixAssemblyPI: 301.591 [ms]
[INFO] MatrixAssemblyPII: 216.991 [ms]
GAMG:  Solving for p, Initial residual = 0.0001970909604817481, Final residual = 1.876067874201725e-06, No Iterations 4
[INFO] SolveP: 673.448 [ms]
time step continuity errors : sum local = 5.245698411329921e-13, global = 2.712545131591641e-15, cumulative = 4.769317411104076e-10
[INFO] PIMPLEStep: 4576.443 [ms]
PIMPLE: iteration 12
velocityDampingConstraint velocityDamping damped 0 (0%) of cells, with max limit 300
[INFO] MatrixAssemblyU: 2870.618 [ms]
smoothSolver:  Solving for Ux, Initial residual = 1.784888208186114e-09, Final residual = 2.638264414374387e-11, No Iterations 1
smoothSolver:  Solving for Uy, Initial residual = 7.713568753639002e-09, Final residual = 8.994124955942171e-11, No Iterations 1
smoothSolver:  Solving for Uz, Initial residual = 2.575440033604082e-09, Final residual = 2.942195485225147e-11, No Iterations 1
[INFO] MomentumPredictor: 384.141 [ms]
[INFO] MatrixAssemblyPI: 301.689 [ms]
[INFO] MatrixAssemblyPII: 216.626 [ms]
GAMG:  Solving for p, Initial residual = 0.000128061821265634, Final residual = 1.247452555563399e-06, No Iterations 5
[INFO] SolveP: 819.937 [ms]
time step continuity errors : sum local = 3.487890048399021e-13, global = 1.541990666429274e-15, cumulative = 4.76933283101074e-10
DILUPBiCGStab:  Solving for omega, Initial residual = 3.022864143733708e-05, Final residual = 9.079762334440323e-11, No Iterations 1
DILUPBiCGStab:  Solving for k, Initial residual = 9.05851052070404e-05, Final residual = 6.989354612580297e-10, No Iterations 1
[INFO] PIMPLEStep: 7147.209 [ms]
PIMPLE: converged in 12 iterations
[INFO] TimeStep: 56964.767 [ms]
ExecutionTime = 2761.15 s  ClockTime = 2775 s

End

Finalising parallel run
